36
Energy:   -475.53606663
O   -2.75673996   0.38843683  -0.67266709
H   -2.26969685   1.20867148  -0.75163533
H   -3.64694546   0.61071341  -0.94535579
O    1.90876282   0.08659585   3.16181372
H    2.46224206   0.20833860   3.93322235
H    1.23175998  -0.52722154   3.44664211
O   -0.32394419  -0.10454090  -4.07479356
H   -0.51809797  -0.63414075  -3.30145007
H   -0.28197766  -0.73548983  -4.79338531
O   -1.15805473   2.55368299  -0.79801121
H   -0.55239040   2.53068531  -1.53887130
H   -0.59581207   2.48685171  -0.02622845
O   -1.48003495  -0.23291619   1.70354077
H   -0.82670601   0.45945446   1.60346062
H   -2.11898542  -0.06178485   1.01166780
O    0.65675317   2.13340000  -2.87327203
H    1.01293062   2.74504984  -3.51767403
H    0.29430873   1.41814362  -3.39602836
O    2.32694131  -1.53294885   0.94796189
H    2.27649928  -0.92269465   0.21224641
H    2.35192258  -0.97239048   1.72345019
O    0.52585109   1.54084595   1.23235459
H    0.91329618   1.11157577   0.46956676
H    1.06764731   1.25678855   1.96856115
O   -0.77424656  -1.27516726  -1.62245633
H   -0.62641704  -1.90762734  -0.91934003
H   -1.53974650  -0.77543769  -1.33870990
O   -0.21295275  -2.48521776   0.76807433
H   -0.66427237  -1.72120510   1.12699924
H    0.71690665  -2.26839216   0.83575015
O    1.41332972   0.25326162  -0.98465479
H    1.39814992   0.94173642  -1.64948851
H    0.68908312  -0.32576124  -1.22220739
O   -0.09650808  -1.65942261   3.66096768
H   -0.79890242  -1.15839463   3.24642575
H   -0.01987461  -2.45109936   3.12841994
