36
Energy:   -476.37918678
O   -2.44555855   1.48091255   1.96873673
H   -3.03903323   1.89874573   2.59278406
H   -1.86243055   0.94964244   2.51090429
O    0.50164087   2.16585105  -1.67178310
H    0.22196729   2.41123265  -0.78985204
H    0.17589200   2.87060774  -2.23163802
O   -2.85272886  -0.64024280   0.23030730
H   -2.83176710   0.17002224   0.73948607
H   -2.31368859  -0.45452318  -0.53857218
O   -0.16352582   2.56123559   0.88196270
H    0.42399289   1.88004599   1.20912374
H   -1.02315782   2.32413943   1.22988524
O    0.52571780  -1.71657071   0.11686604
H   -0.00402649  -1.23818097  -0.52090045
H   -0.11289442  -2.12162703   0.70366725
O    2.57758352  -1.46578341  -1.74041051
H    2.83632624  -0.58355147  -1.47404448
H    2.00936699  -1.77281418  -1.03394471
O   -0.86941606  -0.22794876  -1.69361152
H   -0.52513818  -0.69436458  -2.45529445
H   -0.44282767   0.62841275  -1.72359756
O    0.60283095  -1.50810996  -3.60261103
H    1.37787194  -1.50449835  -3.04089022
H    0.73715323  -2.25017829  -4.19212267
O   -1.52656822  -2.34471780   1.83417296
H   -2.05230127  -3.11840936   2.03724437
H   -2.09032165  -1.81194061   1.27331435
O    1.47582495   0.42981349   1.46383315
H    1.16275114  -0.37100859   1.04323759
H    2.19083727   0.73144257   0.90346797
O    2.92597924   1.14972514  -0.84293377
H    3.63178801   1.74495852  -1.09544724
H    2.13746736   1.53793642  -1.22210770
O   -0.67840618  -0.09963630   3.24240101
H    0.18965859   0.07305899   2.87788524
H   -0.91092614  -0.96601605   2.90840631
