36
Energy:   -484.41326777
O   -2.65374120   0.94018593   2.12823844
H   -2.91117396   0.21226523   1.56247200
H   -3.47746028   1.26326186   2.49339686
O    1.02005625   2.71020701  -1.66917530
H    0.34489600   2.67464655  -0.99158698
H    1.80494009   2.36430135  -1.24427711
O   -3.07110855  -1.15865443   0.49189544
H   -2.49398268  -1.84598437   0.82466432
H   -2.66739399  -0.88406008  -0.33141759
O   -0.73266394   1.87488721   0.36411672
H    0.00070328   1.41512681   0.77280334
H   -1.45428148   1.77546852   0.98509650
O    0.53749424  -1.69579013  -0.35492375
H   -0.15415448  -1.19801916  -0.79090306
H    0.07356688  -2.26044906   0.26327003
O    2.53683193  -0.92988084  -2.07306443
H    2.92731462  -1.65827047  -2.55597608
H    1.89674330  -1.34223160  -1.49299094
O   -1.35076525  -0.09076346  -1.42684244
H   -1.21750283   0.67703148  -0.87099722
H   -0.87547585   0.11104405  -2.23282356
O    0.51060806   0.56957389  -3.29670481
H    1.27272595   0.04769429  -3.04560751
H    0.66443616   1.42614756  -2.89814450
O   -1.08660117  -2.76759494   1.60867259
H   -1.21554804  -3.55190421   2.14202381
H   -0.90505251  -2.07359127   2.24241611
O    1.29310634   0.32631638   1.31043169
H    2.04703179   0.72493549   0.87576967
H    1.08461402  -0.43933229   0.77513279
O    3.12860524   1.28708778  -0.53561390
H    3.05125879   0.52928374  -1.11525378
H    4.03931027   1.56723330  -0.62708354
O   -0.58959453  -0.61910243   3.15410348
H    0.17847044  -0.21290353   2.75246870
H   -1.30624099  -0.01196728   2.96961334
