36
Energy:   -478.58058663
O   -3.12229016   1.89224897  -0.14768460
H   -3.01342901   1.65140974  -1.06767241
H   -3.82999911   2.53674276  -0.15045164
O   -2.58275874   1.01769419  -2.64900832
H   -2.76504572   0.08229293  -2.73860626
H   -1.62970377   1.08330462  -2.70911942
O    0.43747336  -2.73529188   0.37154002
H    0.47988470  -3.65618709   0.62919316
H    1.35003538  -2.44655975   0.36173342
O    2.76595506   0.42347498  -1.27265477
H    2.66105322   1.04009338  -0.54807958
H    3.52264388   0.75098728  -1.75885388
O   -2.91927887  -0.76062265   0.64877935
H   -3.12257922   0.16086906   0.48829932
H   -2.23213664  -0.74230303   1.31491132
O    2.27318181   1.95842655   0.88176205
H    1.33219584   2.08501006   0.76029654
H    2.34066913   1.35692113   1.62329326
O    0.13672899   0.60233843  -2.13760587
H   -0.26375116  -0.24728918  -1.95326808
H    1.07350949   0.46076470  -2.00111036
O    2.89060703  -1.66684970   0.52462393
H    2.80645320  -1.16615156   1.33607408
H    2.94800372  -1.00272529  -0.16230855
O   -0.41290547   1.59048630   0.31160084
H   -1.32519784   1.87801212   0.27577649
H   -0.21549631   1.30669450  -0.58099296
O   -0.43308015  -0.61426860   1.91749744
H   -0.41300140   0.13815443   1.32615298
H   -0.18849371  -1.35843875   1.36738826
O   -1.31902869  -1.56955145  -1.40203424
H   -0.70778234  -2.13823688  -0.93383916
H   -1.98255941  -1.34246338  -0.75058215
O    2.12132797  -0.12160888   2.71353558
H    2.23774110  -0.15579271   3.66301507
H    1.19064493  -0.30058239   2.57926198
