36
Energy:   -475.82075517
O    1.10239774  -0.68732878   0.69415333
H    1.21943735   0.22692391   0.43593714
H    1.62089807  -1.18379615   0.06097925
O    2.21812161  -1.80490283  -1.56571639
H    2.84239929  -2.46783998  -1.86071394
H    1.36882676  -2.12099190  -1.87396597
O   -1.32538850   2.12601162   0.89304451
H   -1.91727731   2.87375092   0.97541814
H   -1.73176093   1.57039736   0.22792341
O   -0.81504877   0.09671102  -3.28979469
H    0.05438402   0.41030846  -3.04084666
H   -0.93019293   0.39867517  -4.19078932
O    1.64768558   0.78833602  -2.44227200
H    2.01415215  -0.05403969  -2.17331613
H    1.64819376   1.31620157  -1.64377995
O   -0.20557465   0.48924439   2.82590461
H    0.30864990  -0.05760353   2.23196663
H   -0.68625849   1.08333673   2.24951136
O   -0.28883170  -2.44375864  -2.30314542
H   -0.56925122  -1.65054807  -2.75966894
H   -0.79844286  -2.44718680  -1.49288833
O   -2.11455611  -1.48395292   2.82992576
H   -2.38332774  -1.75746262   3.70695832
H   -1.49299348  -0.77177690   2.98058117
O    1.30639542   1.94653773   0.07801766
H    1.74498500   2.17822439   0.89667041
H    0.38646804   2.16389946   0.22874701
O   -2.28724278   0.46924533  -0.97836344
H   -2.11430435  -0.38082856  -0.57376670
H   -1.87421608   0.41337343  -1.84005894
O   -1.34680283  -1.81024659   0.20196239
H   -0.47444176  -1.45761155   0.37765117
H   -1.75827999  -1.87318414   1.06391207
O    1.96735320   2.18418290   2.74642844
H    2.52309736   2.15758374   3.52532045
H    1.21801044   1.63106020   2.96727356
