36
Energy:   -477.26355599
O    1.16342067   3.61979156   0.58302408
H    1.18528070   3.35814034   1.50350908
H    0.30878671   3.32379729   0.26962333
O   -0.99543862   1.91698962   0.05619333
H   -0.61886805   1.60988849   0.88088439
H   -1.78193988   1.38428503  -0.06159224
O   -0.81384345  -3.21942564  -1.21537824
H   -1.45040285  -2.98234737  -0.54097638
H   -1.04267299  -4.11706777  -1.45643321
O   -2.98789131   0.11526622  -0.59623412
H   -3.84879385   0.36623003  -0.93104127
H   -2.51875594  -0.21368720  -1.36300234
O    1.10520336  -1.59109244  -0.04770950
H    0.62919890  -2.29894354  -0.48198871
H    0.97085095  -0.82986211  -0.61225326
O   -1.46483575  -0.88664303  -2.57899750
H   -1.21950748  -1.75932560  -2.27163611
H   -0.66349339  -0.36947812  -2.49761739
O   -0.32888673  -1.53620051   2.27673594
H    0.11609522  -2.09523672   2.91368290
H    0.22293897  -1.57601596   1.49562457
O    2.87582883   2.13612783  -0.89417009
H    3.56589593   2.68063872  -1.27304622
H    2.33022793   2.74881648  -0.40105334
O    0.68091114   0.59936308  -1.60395372
H    1.49629510   1.10037174  -1.58468787
H    0.07028725   1.11435685  -1.07655281
O    0.43094516   1.11424987   2.22892731
H    0.04315758   0.27047196   2.46107271
H    1.32227264   0.90088741   1.95280483
O    2.80719540   0.29848006   1.18389586
H    2.99785289   0.89389665   0.45907819
H    2.48179263  -0.49672122   0.76199561
O   -2.45990250  -2.27320966   0.69159786
H   -1.84675863  -2.02837638   1.38466575
H   -2.76938491  -1.43879249   0.33917697
