36
Energy:   -474.88539323
O   -2.67695792   1.45937741   1.79408402
H   -2.13433165   0.88431369   2.33361188
H   -3.21127036   1.94456681   2.42283938
O    1.68302713   2.47068307  -1.60066637
H    0.89824648   2.55201489  -1.05869190
H    2.31121457   2.00865123  -1.04556371
O   -3.18226603  -0.76255978   0.20744112
H   -3.19146941   0.03734971   0.73307593
H   -2.71614624  -0.51885538  -0.59229156
O   -0.54530119   1.99816079   0.07179219
H    0.06212061   1.47927319   0.59907415
H   -1.33797383   2.05511315   0.60532604
O    0.24642120  -1.65716653  -0.21368077
H    0.99347037  -2.13658704  -0.57187815
H   -0.21953919  -2.30187728   0.31872960
O    2.70811715  -1.40382292  -1.75900728
H    3.22657669  -1.86731756  -2.41673388
H    2.10624790  -0.86012668  -2.26731787
O   -1.32029152   0.00891785  -1.66889938
H   -1.13324940   0.81494190  -1.18767976
H   -0.79259062  -0.65947203  -1.23184267
O    1.04628425   0.26197503  -3.06824868
H    0.12690933   0.16521921  -2.82001508
H    1.29570051   1.12356936  -2.73406519
O   -1.70784938  -2.57895030   1.55866735
H   -2.29082582  -2.00351679   1.06344356
H   -2.27537991  -3.28290682   1.87265168
O    1.10806737   0.30837152   1.41955446
H    1.97905363   0.53528374   1.09378518
H    0.82843415  -0.42233600   0.86809853
O    3.33668984   0.74908771  -0.15303865
H    3.21080002  -0.02898933  -0.69615902
H    4.28602250   0.86656869  -0.11843274
O   -1.06484959  -0.30294896   3.05208596
H   -0.20059501  -0.07367935   2.71042631
H   -1.25106982  -1.16327420   2.67606155
