36
Energy:   -478.87484391
O   -3.00018885   0.65834990  -1.24476830
H   -2.43202810   0.73391472  -2.01139414
H   -2.51970365   1.10129723  -0.54536607
O    1.33345878  -2.21336980  -0.34119054
H    1.81449564  -3.04073395  -0.35862468
H    1.94860474  -1.58607616   0.03871732
O    0.53665409   1.80505679  -1.36698929
H    0.09992561   1.43169638  -2.13256233
H   -0.09522300   1.70073648  -0.65559596
O   -0.66901617  -1.97164786  -2.25118237
H   -1.41704511  -2.09412715  -1.66664548
H    0.09601557  -2.04569510  -1.68067796
O    2.87015421  -0.49739964   1.05744470
H    2.92050443   0.40948706   0.75536324
H    2.40718450  -0.44644838   1.89368322
O    1.06688373  -0.32918340   3.17562746
H    0.37002707  -0.72845414   2.65485350
H    0.94499612  -0.68773342   4.05472765
O   -1.05227828   0.50735952  -3.23168499
H   -1.10576236   0.46553849  -4.18647413
H   -0.86907256  -0.39258645  -2.96193555
O   -1.14819707   1.33449136   0.71959608
H   -0.61676948   1.82355489   1.34779463
H   -0.99184473   0.41553213   0.93708106
O    2.64677142   2.14169014   0.28298683
H    3.22771800   2.82263440  -0.05620022
H    1.97018574   2.04757170  -0.38753937
O   -2.77641877  -1.89011128  -0.43118689
H   -2.95493426  -0.99382671  -0.71585868
H   -3.63154415  -2.32008850  -0.44177125
O   -0.68525886  -1.32431872   1.28667455
H   -1.49511013  -1.61486275   0.86720234
H    0.01159999  -1.67865757   0.73434895
O    0.79380606   2.31174340   2.35378508
H    1.50368134   2.38228573   1.71555886
H    0.94339542   1.47151539   2.78722684
