36
Energy:   -479.79602369
O    0.23410142  -0.61060690   3.07996855
H    0.33570934   0.34090576   3.10301893
H   -0.67176838  -0.74859030   2.80321534
O   -1.10349661  -1.79748825  -3.20821309
H   -0.28523840  -2.25006545  -3.00361777
H   -0.83384273  -0.91110137  -3.44870619
O    2.15488400  -1.36760679   1.35340304
H    1.47483403  -1.21247946   2.00891765
H    2.88955938  -1.72754683   1.85032064
O    2.15655832   0.18264591  -2.20815587
H    1.86480072  -0.67197142  -1.89076246
H    2.25671209   0.71126805  -1.41647431
O   -0.74857754   1.37439131  -0.83526507
H   -0.62286237   1.35373947  -1.78394892
H    0.13764096   1.34206574  -0.47498230
O    0.47072753   2.13185663   2.69321994
H    0.52250985   2.86992689   3.30051125
H   -0.42154882   2.16687805   2.34847618
O   -2.32007635  -0.78226040   1.99916710
H   -3.08661525  -1.29768728   2.25013541
H   -2.13629363  -1.04854136   1.09830628
O   -0.12347996   0.79903810  -3.47464553
H    0.02702980   1.30131782  -4.27545372
H    0.75360010   0.61529809  -3.13819045
O    1.70935744   1.18378744   0.39149228
H    1.43399509   1.65878856   1.17557223
H    1.95133683   0.31426741   0.71025983
O    1.00044005  -2.02392055  -1.07154897
H    1.47688060  -1.99407349  -0.24188313
H    0.09865680  -1.80321128  -0.83851198
O   -1.56816856  -1.18899062  -0.59215865
H   -1.69354497  -1.49236632  -1.49131147
H   -1.33576215  -0.26468770  -0.68094620
O   -1.97055530   1.95118864   1.59310590
H   -1.71844678   1.91772674   0.67030937
H   -2.24992604   1.05890341   1.79807153
