36
Energy:   -482.79397902
O   -2.76962286   1.65728548   1.22392471
H   -2.00198003   2.06772832   1.62203651
H   -3.51538626   2.06872871   1.66071215
O   -0.34110398   2.58117701   2.17506993
H    0.10100331   1.73227258   2.16348259
H    0.06185063   3.05167689   2.90478857
O   -1.62630259  -0.78268590   0.53447608
H   -1.37656997  -0.54759128  -0.35916590
H   -2.20505823  -0.07422290   0.81617438
O   -2.07174221   2.23903109  -1.42214370
H   -2.47823541   2.08773235  -0.56885369
H   -1.28381312   2.74595558  -1.22611527
O    1.65163065   0.80607436  -0.71286198
H    2.25399450   0.11095025  -0.97779992
H    1.39933108   0.57698947   0.18161938
O    0.55015859  -2.53707811  -2.16163156
H    0.17245090  -2.93319570  -1.37635480
H    0.02715791  -1.74889014  -2.30813025
O   -0.66381553  -0.04160402  -1.88112397
H    0.17888247   0.30589333  -1.58899812
H   -1.23033906   0.72707235  -1.94760391
O    0.28907774   3.24841538  -0.46512425
H    0.12605075   3.15663645   0.47361462
H    0.92701525   2.56363839  -0.66599249
O   -0.42665746  -3.25829652   0.33964115
H   -0.97323947  -2.48573542   0.48327020
H   -0.98025017  -3.99528620   0.59773643
O    2.00404685  -2.23396675   1.27481792
H    2.47338565  -2.08587231   0.45383012
H    1.23516655  -2.74538769   1.02281881
O    2.91310709  -1.59664251  -1.28178056
H    3.63675512  -1.90933727  -1.82472380
H    2.13107867  -1.97655570  -1.68219205
O    0.66111880   0.08061524   1.72181357
H    1.22721891  -0.68941576   1.77486797
H   -0.16913823  -0.25474830   1.38352908
