36
Energy:   -492.98246755
O   -0.57867669   0.68894598  -1.70215503
H   -0.70588180  -0.18717569  -1.33820238
H   -1.41729206   1.12969849  -1.56543144
O   -0.77317898  -1.70071256  -0.43067977
H   -0.34265457  -1.43239469   0.38103822
H   -0.10900030  -2.20675424  -0.89867588
O    1.53842840  -2.66978721  -1.60530446
H    1.89036994  -3.52795464  -1.84177361
H    2.03789625  -2.41064075  -0.83096162
O    0.46840260  -0.64664619   1.75194763
H   -0.27613513  -0.48003581   2.32999295
H    0.66161947   0.20414977   1.35818967
O   -1.53668203   2.49790697   1.51028382
H   -0.61876433   2.42281212   1.24947794
H   -1.67024047   1.77900970   2.12800600
O    0.88232474   1.65883249   0.38140676
H    0.39422727   1.41260103  -0.40431761
H    1.80155884   1.55741355   0.13451668
O   -1.94520544   0.10670234   2.87692037
H   -2.47623905  -0.09784458   3.64659283
H   -2.45678407  -0.22264960   2.13797081
O    3.32817753   0.80275736  -0.59189382
H    4.14265743   1.21344672  -0.88204653
H    2.90338876   0.51496199  -1.39995332
O   -2.91782266   1.75895826  -0.68134201
H   -3.57114795   2.41788927  -0.91630546
H   -2.48263696   2.11761804   0.09209733
O    1.90901706  -0.13143490  -2.68161290
H    1.79659395  -1.06227805  -2.48893723
H    1.03114180   0.23969171  -2.59311479
O   -3.16621487  -0.69367929   0.61299999
H   -2.50831900  -1.22313328   0.16235230
H   -3.23495002   0.10282502   0.08660830
O    2.78395142  -1.66898071   0.56280857
H    2.09233142  -1.43798395   1.18291673
H    3.12982343  -0.82769776   0.26473575
