36
Energy:   -474.81050021
O   -3.26505082   0.49632534   0.45497390
H   -4.19487861   0.26908398   0.45864739
H   -2.88532857  -0.03522587   1.15461393
O    2.76351240  -0.06297222  -0.96705562
H    2.51910366   0.33548545  -0.13175465
H    2.72819842  -1.00532523  -0.80287409
O    0.04809841  -1.37031904   0.53583330
H    0.69912186  -1.95838035   0.15297012
H   -0.35125978  -0.93242643  -0.21582816
O   -0.41947491   1.32199831   3.25783529
H   -0.01697737   1.53441813   4.09991925
H    0.32027094   1.18461991   2.66611313
O    1.40092770   0.85737167   1.28613375
H    1.01515601   1.50928603   0.70096735
H    0.95494280   0.04044755   1.06260682
O    1.44080941  -2.91687174  -3.24236406
H    1.54292924  -3.18227802  -4.15634595
H    1.24330641  -1.98123062  -3.28479187
O   -1.97896505   2.75161997   1.44529025
H   -2.56333738   2.06597595   1.12181983
H   -1.54039303   2.35720419   2.19916201
O   -1.11334615   0.28692724  -1.30774929
H   -1.97458721   0.30932516  -0.89062340
H   -0.71948684   1.13189195  -1.09062875
O    0.98310224  -0.26663928  -3.06086426
H    1.66041544  -0.05004152  -2.42011152
H    0.15888127  -0.08189861  -2.61057267
O   -1.93963214  -0.83657640   2.37582897
H   -1.26788310  -1.24551578   1.83016089
H   -1.47383152  -0.15370147   2.85847113
O    0.01700596   2.58107642  -0.33355207
H    0.21165733   3.41316742  -0.76479128
H   -0.70034984   2.78397389   0.26683541
O    2.12878487  -2.75702642  -0.62823826
H    1.89757289  -2.91112086  -1.54422285
H    2.63506957  -3.52901691  -0.37537798
