36
Energy:   -477.56281485
O   -2.23949598   0.27240361   2.50813770
H   -2.87033728   0.28826365   3.22787345
H   -2.64523572  -0.28682794   1.84566718
O    2.90193053   1.15661630  -0.26731247
H    2.99068606   0.46945943   0.39311901
H    2.85954427   0.68559622  -1.09952358
O   -0.57019443  -1.71300422  -0.35800512
H   -0.46411900  -0.94738963  -0.92264142
H   -1.50353418  -1.72745966  -0.14610936
O   -0.18208769   0.49652310  -1.92045953
H    0.05207764   1.24771060  -1.37537625
H    0.64328109   0.22467435  -2.32182780
O    2.09797369  -2.42487786  -0.78515810
H    1.15123983  -2.42707545  -0.64401274
H    2.46044394  -2.06464423   0.02421134
O    2.87639101  -0.99437066   1.46963916
H    3.39954515  -1.23154429   2.23533510
H    1.98338334  -0.91381420   1.80472095
O   -2.89099354   0.87986227  -1.29787604
H   -2.70205678   1.54827061  -0.63926763
H   -2.06489901   0.76562947  -1.76771702
O    2.37596951  -0.39335600  -2.51847808
H    2.32434657  -1.18080781  -1.97673408
H    2.89863460  -0.65693486  -3.27582822
O   -3.19847737  -1.19236594   0.36841438
H   -3.17964433  -0.46739551  -0.25632159
H   -3.97498152  -1.69724761   0.12682040
O    0.25575626  -0.88281740   2.09721754
H   -0.50859437  -0.41373231   2.43182051
H   -0.02747767  -1.23096896   1.25175856
O    0.58442635   2.53770787  -0.25023555
H    0.81332998   3.42443154  -0.52872453
H    1.42658062   2.09821585  -0.13252911
O   -1.99490775   2.41137715   0.77075511
H   -1.06618923   2.49200478   0.55346970
H   -2.02121030   1.76395909   1.47530452
