36
Energy:   -474.92303451
O   -2.35699379  -0.27156970   0.11915569
H   -2.05286838  -0.22604764   1.02561436
H   -2.42377331   0.64226512  -0.15775274
O    0.12059761   3.23591129   0.08951552
H    0.38346436   2.68677351   0.82814982
H    0.74168280   3.01710955  -0.60518645
O   -0.38909648  -1.21224535  -1.46219773
H    0.36140642  -0.80226641  -1.03220410
H   -1.13991744  -0.96355221  -0.92307671
O   -2.20998699   2.30307429  -0.87937280
H   -2.83178144   3.02655137  -0.95801392
H   -1.42734178   2.69978391  -0.49685506
O    0.02015578  -2.61702814   2.14083497
H   -0.30501002  -3.15292425   1.41743023
H    0.95535691  -2.51629936   1.96339650
O    0.21848487  -3.67611592  -0.52390068
H   -0.05030601  -2.85771527  -0.94127783
H    0.05670699  -4.34780319  -1.18639293
O   -0.66094766   1.13561622  -2.87472152
H   -0.62725561   0.22832874  -2.57152831
H   -1.32063310   1.55013547  -2.31864530
O    1.64947246   2.16280089  -1.97028366
H    0.85897919   1.82950147  -2.39485843
H    2.17520766   2.51806140  -2.68695954
O   -1.23212512  -0.29682233   2.64140707
H   -0.80667256  -1.14325157   2.50436869
H   -1.81974925  -0.44088292   3.38314576
O    1.72675869   0.01127622  -0.24158824
H    1.46291279   0.45727582   0.56321084
H    1.89152550   0.71867303  -0.86502509
O    2.41015410  -2.47471642   0.80798196
H    2.36238315  -1.61184801   0.39639008
H    1.84520085  -3.02901097   0.26963520
O    0.84452949   1.34917628   1.98725181
H    0.09717593   0.82616720   2.27734835
H    1.39530713   1.43309031   2.76560538
