36
Energy:   -475.19861418
O    0.93118564   0.78705029  -3.80166982
H    1.59414491   0.71914338  -4.48876917
H    1.38711302   1.19988893  -3.06823521
O    1.05707967  -0.81675238  -0.55696331
H    0.28408065  -0.60931954  -1.08201186
H    0.94273693  -1.73554215  -0.31409927
O   -2.13704586  -2.12553536  -0.59177998
H   -1.93946531  -1.42637916  -1.21497688
H   -2.46060130  -1.66993676   0.18537742
O   -1.06127092  -0.00938710  -2.06576772
H   -1.15004669   0.86145952  -1.67849922
H   -0.52841499   0.12934085  -2.84874342
O   -0.73795275   2.45164578  -0.85481407
H   -0.95181943   2.18799315   0.04016089
H   -1.18761717   3.28842522  -0.97243176
O   -1.27233399   1.51068022   1.59239864
H   -1.86551761   0.76485417   1.68244610
H   -0.41719020   1.17029038   1.85525927
O    1.87249681   1.69186434  -1.37320649
H    1.01529745   2.07773584  -1.19280612
H    1.78502961   0.77705397  -1.10543173
O    0.12469782  -3.25804443   0.33503026
H   -0.71136087  -2.96343213  -0.02613633
H    0.16731734  -4.18829937   0.11357786
O   -0.35658971  -1.94575239   2.74026067
H    0.26667225  -1.22026499   2.70225538
H   -0.09988386  -2.52069129   2.01930351
O    2.91595539   2.21403141   1.11337960
H    2.65155929   2.14414689   0.19607774
H    3.75903768   2.66648306   1.08633149
O    1.14276595   0.27200178   1.94534145
H    1.14150649  -0.13770643   1.08025797
H    1.81502897   0.95100360   1.88832551
O   -2.64681106  -0.87244730   1.82307275
H   -1.88003293  -1.27837208   2.22743424
H   -3.35810957  -1.03227149   2.44334891
