9
Energy:    -61.21213210
O    1.47209245  -0.35940393   0.67327531
H    0.94949593  -0.55932109  -0.10335706
H    2.24528292   0.09067215   0.33292274
O   -1.12018946   1.07330720   0.43434397
H   -0.25680923   0.87491085   0.79689784
H   -1.21126480   2.02071926   0.53606672
O   -0.41561264  -1.03083421  -1.16322439
H   -0.79253396  -0.21722056  -0.82826918
H   -0.83567182  -1.71976593  -0.64829215
