9
Energy:    -60.59688207
O    0.52180169  -0.28530520  -1.65246566
H    0.92832701   0.03721847  -0.84813519
H    1.25440536  -0.59963521  -2.18229617
O    1.15856343   0.31811717   1.03291475
H    1.33229015   1.25212570   1.14987177
H    0.21212783   0.23373000   1.14854481
O   -1.60164943  -0.13731482   0.71565416
H   -1.30261675  -0.46966375  -0.13072371
H   -2.54623288  -0.29220739   0.71415697
