9
Energy:    -61.02533409
O    1.66586069   0.25459405  -0.40517750
H    1.04251121   0.12467014  -1.11987118
H    2.49547112  -0.07911034  -0.74667387
O   -1.31556796  -0.48050460  -1.08931494
H   -1.16140684  -0.18415667  -0.19229537
H   -2.22502546  -0.77903021  -1.09048027
O   -0.42186013   0.11863866   1.50822487
H    0.34823680   0.27155280   0.96068508
H   -0.38913923   0.81192323   2.16740443
