9
Energy:    -60.47060275
O    0.28672831  -1.08658219  -1.33096571
H    0.87175698  -1.11915880  -2.08787526
H    0.82478308  -0.72401949  -0.62720638
O    1.25158890   0.25611368   1.12583557
H    1.55667730   1.05272040   1.56008279
H    0.31697359   0.40426497   0.98169238
O   -1.50481534   0.72857523   0.25240931
H   -1.20006605   0.02828164  -0.32460768
H   -2.42192085   0.51544455   0.42481766
