9
Energy:    -61.24348084
O    0.84145236   0.02693475  -1.50983555
H    0.69771038   0.32244716  -2.40885863
H    0.14577279   0.44781804  -1.00474245
O   -0.89766948   1.13233003   0.34388277
H   -1.06440346   1.87080326   0.92962070
H   -0.73104702   0.39406069   0.92990937
O    0.26788779  -1.23949601   1.25272919
H   -0.06370526  -2.07590161   0.92607407
H    0.68841673  -0.83518514   0.49383527
