9
Energy:    -61.90239473
O    0.44449264   1.34792434   0.79706367
H   -0.41714052   1.11620430   0.45047172
H    0.60777271   2.23032522   0.46398687
O    0.88736062  -1.49493832   0.12792087
H    1.55478705  -1.96152983   0.63097770
H    0.94424502  -0.59012952   0.43503170
O   -1.54424795   0.02981389  -0.78547842
H   -1.30893597   0.12164408  -1.70874833
H   -1.05235307  -0.73531571  -0.48740468
