9
Energy:    -61.36632721
O   -1.10371880   1.28375853  -0.00242328
H   -1.96298214   1.51716761  -0.35373305
H   -1.26870863   0.51602114   0.54492442
O    1.58710063   0.14270795  -0.52191642
H    2.27077454   0.73076647  -0.20096627
H    0.78435862   0.66238983  -0.47987050
O   -0.30846172  -1.55570057   0.66059658
H    0.47699299  -1.10771926   0.34658148
H   -0.57087260  -2.11882195  -0.06759756
