9
Energy:    -60.66979888
O    0.34834785  -1.24766566  -0.81544881
H    0.92339023  -1.99626043  -0.65681720
H    0.01479167  -1.01349580   0.05065545
O    0.51776782   1.53412085  -0.77370264
H    0.56772665   0.58052549  -0.83997378
H    0.65246410   1.84430394  -1.66917749
O   -0.80407930  -0.22445034   1.49375966
H   -0.55406534   0.69752309   1.43301536
H   -1.70021936  -0.20845959   1.82977922
