9
Energy:    -64.80094611
O   -1.32313132  -0.72920359   0.61510954
H   -0.79181288   0.03800533   0.82800160
H   -1.37505953  -1.22020840   1.43513977
O    0.76423751  -0.59286273  -1.33544863
H    0.07105470  -0.91305643  -0.75820913
H    0.31148110  -0.35269902  -2.14388223
O    0.67215433   1.22385470   0.81326417
H    0.57809286   2.02082742   0.29151828
H    1.03113604   0.57897229   0.20376384
