9
Energy:    -60.30061466
O    0.39887798   0.62986702   1.59091366
H    0.48013874   1.44037635   2.09360957
H   -0.16900859   0.85956174   0.85540226
O   -0.93840626   0.87691180  -0.82281085
H   -1.55446022   0.89870065  -1.55509127
H   -0.39182079   0.10949652  -0.99177820
O    0.51704298  -1.43960565  -0.68167589
H    1.32285743  -1.94349981  -0.79563034
H    0.34705708  -1.46848930   0.25986666
