9
Energy:    -62.99714314
O    0.42450205  -1.25820506  -0.83211634
H    0.57859583  -1.64799585  -1.69266855
H   -0.50078006  -1.01327441  -0.84180336
O    1.11635060   0.97024468   0.51418353
H    1.93119322   0.82555047   0.99514812
H    0.93945456   0.13339615   0.08450437
O   -1.55853910   0.41140693   0.28730241
H   -0.75323444   0.87803027   0.51086203
H   -2.16788477   0.63343743   0.99131388
