9
Energy:    -61.79052048
O   -1.16263512  -0.79614971  -1.01431007
H   -0.77098232   0.07285487  -1.10189414
H   -0.60852113  -1.36417756  -1.54959868
O    0.62609272   1.53898031  -0.50351470
H    0.63696877   2.30222766   0.07403793
H    0.70124921   0.78975176   0.08745056
O    0.39931433  -0.53916932   1.36585757
H   -0.30574517  -0.82668665   0.78580867
H    0.55919365  -1.28884292   1.93914627
