9
Energy:    -64.68034005
O   -1.47128355  -0.63789890  -0.46288755
H   -1.98167234  -1.42892655  -0.28965252
H   -0.55940965  -0.92242330  -0.40153859
O    0.20446798   1.52640435   0.75599564
H   -0.53821755   1.15173616   0.28242008
H   -0.18397470   1.92548569   1.53450589
O    1.25792301  -0.84114529  -0.41236029
H    2.07505273  -0.83390768  -0.91083644
H    1.20196995   0.03481395  -0.03052718
