9
Energy:    -62.11254906
O   -0.83344415  -1.45725410   0.50084929
H   -1.23359504  -1.89732215  -0.24911820
H   -0.98166188  -0.52546949   0.33947774
O   -0.98947489   1.18447848  -0.17179432
H   -0.04692818   1.03357877  -0.24297602
H   -1.06572332   1.98724055   0.34394893
O    1.52292777   0.20468787  -0.21255533
H    2.43566962   0.18123054  -0.49992950
H    1.35604372  -0.67399039   0.12848144
