9
Energy:    -61.30105019
O    0.13444120  -1.43294206   0.87772307
H   -0.47982816  -1.39658572   0.14452240
H   -0.40569036  -1.66918224   1.63183203
O    1.16426264   1.12723062   0.26029707
H    1.03065251   0.20066998   0.45996070
H    2.03316206   1.16368514  -0.13959882
O   -1.32075545   0.32558964  -1.00458962
H   -0.50321610   0.69604190  -0.67198418
H   -1.64098681   0.97463802  -1.63102391
