9
Energy:    -60.93212091
O    0.59153795  -1.44527680   0.11756743
H   -0.01405615  -1.05771898  -0.51432383
H    1.26053985  -1.86914247  -0.42002554
O    0.65328089   1.15827877   1.18814991
H    0.70560519   0.21818823   1.01574400
H    0.12406070   1.22745589   1.98273934
O   -1.01207630   0.34351018  -1.38796122
H   -0.53138708   1.00629497  -0.89209225
H   -1.90459676   0.38755111  -1.04488765
