9
Energy:    -62.77141570
O   -0.95147984  -0.25791368   1.41580956
H   -1.07756327   0.11737620   2.28729813
H   -0.74120790   0.49219933   0.85961893
O    0.14465294   1.57695887  -0.86178586
H    0.28531761   0.64142245  -1.00744611
H    0.95840248   1.98986193  -1.15084399
O    0.59279172  -1.22483610  -0.70248969
H    0.86236621  -2.13293265  -0.84004734
H    0.04359642  -1.25358029   0.08095791
