9
Energy:    -70.00715079
O   -0.42870326  -1.43541542  -0.55149115
H   -0.64442014  -0.93801424   0.23736253
H   -0.18379452  -2.30269179  -0.22887177
O   -0.50349768   0.45465316   1.45631215
H   -1.00067143   1.20287148   1.78679583
H    0.09904506   0.83128889   0.81497011
O    0.96489656   0.92086506  -0.84636228
H    1.09721609   1.24762792  -1.73627768
H    0.58207550   0.05152250  -0.96435979
