9
Energy:    -60.93304546
O   -1.72123133   0.06914455   0.32357666
H   -1.04664509  -0.54439582   0.03248653
H   -2.14886415  -0.37422931   1.05623050
O    0.61044100  -1.36834433  -0.33799986
H    0.91139412  -0.46035124  -0.37275070
H    1.41110167  -1.88912429  -0.40094888
O    0.99790738   1.29445156  -0.09655419
H    0.34867626   1.34692742   0.60485659
H    0.69886115   1.92851430  -0.74829619
