9
Energy:    -61.51164741
O    0.20292568  -0.19770224   1.66447973
H    0.08236595  -1.14640272   1.70527918
H    1.01917843  -0.08019229   1.17852221
O   -1.35837830   0.54897071  -0.43235459
H   -1.39362572   1.50308789  -0.50054449
H   -0.98341457   0.38388740   0.43273589
O    1.13129103  -0.28957146  -1.14429043
H    1.09666667  -0.62128357  -2.04150840
H    0.21618453  -0.13448407  -0.91028223
