9
Energy:    -60.76081453
O    0.42540362   0.96525335   1.34116801
H   -0.39446388   0.88716137   0.85336601
H    0.21058394   0.65885945   2.22219419
O   -1.54166488   0.15791474  -0.63823513
H   -2.16029943  -0.25523692  -1.24058789
H   -0.71630151  -0.30301951  -0.78839098
O    1.16364761  -0.82007608  -0.86970264
H    1.26919130  -0.00544208  -0.37831295
H    1.71802737  -1.45092115  -0.41043210
