9
Energy:    -64.26727753
O   -1.27340041  -0.41389811   1.05703444
H   -0.73697197  -0.42518053   1.84971917
H   -0.82926962  -1.01415484   0.45814250
O    0.21024011   1.52587470  -0.22902259
H   -0.30048770   2.32261725  -0.37251566
H   -0.40522996   0.91639838   0.17836794
O    0.84052713  -1.16655031  -0.86065000
H    1.66465794  -1.49940651  -1.21596255
H    0.95150583  -0.21589943  -0.84729082
