9
Energy:    -61.28814257
O    1.54114377   0.10421874  -0.18908718
H    2.11162495   0.62820926  -0.75141893
H    0.91339453   0.73244965   0.16796837
O   -0.89485185   1.46739682   0.42391183
H   -1.59401986   1.66533432   1.04698219
H   -1.04854979   0.55681098   0.17203441
O   -0.69955693  -1.58963103  -0.32535219
H   -0.40868638  -2.47364985  -0.10143948
H    0.10858754  -1.08130133  -0.39416542
