9
Energy:    -61.44217546
O    1.15590909   0.02017401   1.29314208
H    0.73238282   0.67271233   0.73542253
H    2.08946832   0.11080652   1.10213224
O   -0.42053322   1.36438464  -0.59088084
H   -1.10007168   1.90504839  -0.99354949
H   -0.83799143   0.51320262  -0.45878366
O   -0.87579091  -1.40294331  -0.34514727
H   -0.10067378  -1.35921359   0.21477504
H   -0.56602397  -1.81413246  -1.15211677
