9
Energy:    -61.51472511
O   -0.24036709  -0.86898188  -1.45959735
H   -0.89351747  -0.92088825  -2.15740259
H   -0.73220410  -0.57807803  -0.69167603
O    1.45804714   0.78708586   0.46156670
H    1.41475074   0.10041322  -0.20389401
H    2.18338967   1.34602236   0.18281942
O   -1.32811874   0.12543312   1.03121190
H   -0.47034935   0.54171070   1.11592606
H   -1.33132449  -0.55649103   1.70292689
