9
Energy:    -61.31734003
O    1.58264398  -0.62265802   0.13861072
H    1.67822729  -1.39495108  -0.41875730
H    1.32035119   0.07542094  -0.46148936
O   -0.95589003  -0.39388436   1.09569600
H   -0.07935261  -0.75279925   0.95751461
H   -0.97817729  -0.16611750   2.02513529
O   -0.58741346   0.99139816  -1.34988842
H   -0.95964679   0.44765799  -0.65561123
H   -1.04222459   1.82966341  -1.26809562
