9
Energy:    -60.91485588
O   -1.44276821   0.84066512   0.23756581
H   -2.30659840   0.66976865  -0.13769896
H   -0.83264569   0.68296809  -0.48292985
O    0.71914887  -0.98598642   1.26886194
H   -0.12239565  -0.56040201   1.10481137
H    1.10660125  -0.48338372   1.98545320
O    0.62018951   0.04788091  -1.46382740
H    1.42729857   0.54300486  -1.60403827
H    0.88764879  -0.70130704  -0.93146024
