9
Energy:    -61.37943978
O   -1.33268090   0.01428719   0.77811570
H   -0.80894815  -0.61483920   0.28199490
H   -1.80110665  -0.51776500   1.42133388
O    0.75350358   1.62135170  -0.27385416
H   -0.03420590   1.18871078   0.05564160
H    0.79454305   2.44617295   0.21010608
O    0.51739121  -1.48752522  -0.57881567
H    1.21686806  -0.85184563  -0.42756939
H    0.72837471  -1.87942671  -1.42624179
