9
Energy:    -62.44809707
O   -1.15483577   0.78410820   0.65161036
H   -1.54330308   1.29633143   1.36080170
H   -0.58518380   0.15492490   1.09416753
O    0.70283014   0.55272952  -1.37446715
H    0.71277867   1.29722446  -1.97601529
H    0.00384790   0.75579012  -0.75283859
O    0.68439476  -1.50585208   0.70382354
H    0.23921400  -2.28598593   0.37301074
H    0.81335846  -0.95697841  -0.06969951
