9
Energy:    -60.61829507
O   -0.49546232   0.65676017   1.59727244
H   -0.85714752   0.43735761   0.73862339
H   -0.53939024  -0.16129416   2.09233739
O    1.45459393  -0.11161215  -0.27813994
H    1.03571544   0.17289421   0.53415852
H    1.94216370   0.65550887  -0.57819478
O   -1.08608439  -0.35311900  -1.21443743
H   -0.15598122  -0.44282479  -1.00684938
H   -1.22908336  -0.95853039  -1.94194014
