9
Energy:    -63.64131392
O    0.98363207  -1.06326855  -0.51130362
H    1.92536548  -0.89220320  -0.52163229
H    0.69215855  -0.74983438   0.34487046
O   -0.96359160   0.70028533  -1.21630213
H   -1.50267355   0.34571687  -1.92334082
H   -0.22975798   0.08986928  -1.14480169
O   -0.00688218   0.28448811   1.65529709
H   -0.27280131   0.91725277   0.98811814
H   -0.63263472   0.41055694   2.36857983
