9
Energy:    -63.86878706
O   -0.03330272  -0.61160897   1.49518408
H    0.10485348  -1.55695811   1.55400348
H    0.68617879  -0.29754184   0.94751626
O   -1.24673929   0.30930039  -0.89003635
H   -2.13839700   0.09546355  -1.16472197
H   -1.27900103   0.28946732   0.06641422
O    1.47841209   0.29352014  -0.54533198
H    0.58474767   0.26959774  -0.88741891
H    1.73492577   1.21355881  -0.60827189
