9
Energy:    -63.80131695
O    0.36494135   0.32728870   1.62725213
H    0.05650984   0.06489464   2.49457629
H    0.15021661  -0.41446568   1.06163249
O   -0.07642920   1.16047792  -1.21905870
H    0.44723307   1.11862333  -0.41889755
H   -0.26257019   2.09214478  -1.33559300
O   -0.32196224  -1.49277888  -0.36913432
H    0.03569916  -2.15462050  -0.96097539
H   -0.37537259  -0.69882730  -0.90113062
