9
Energy:    -61.51525534
O   -1.18692857   0.85271934  -0.83711148
H   -0.33280454   0.46022131  -1.01780260
H   -1.06157277   1.78708574  -1.00287397
O    1.64162921   0.19224701  -0.22056972
H    2.42758969  -0.34027583  -0.09843288
H    0.98035072  -0.22589538   0.33088250
O   -0.45904566  -0.87993702   1.07699832
H   -1.00388282  -0.27633050   0.57198000
H   -1.00296261  -1.65995081   1.18638150
