9
Energy:    -61.33376756
O    0.27364173  -1.17260476   1.13691668
H    0.31314884  -2.11365322   1.30750050
H   -0.54872343  -1.04894100   0.66293918
O   -1.23338035  -0.13518808  -1.20446219
H   -1.04437704  -0.04994674  -2.13893718
H   -0.62164412   0.46637221  -0.78003806
O    0.92417578   1.33957492  -0.03205070
H    1.02130041   2.10408276   0.53568728
H    0.93527769   0.59294894   0.56683012
