9
Energy:    -60.23986219
O   -0.49467033  -1.57330020  -0.23313592
H   -0.83448938  -0.90067510   0.35705924
H   -0.58278061  -2.39020796   0.25791411
O    1.51587675   0.48721344  -0.56068398
H    0.97492276  -0.29260143  -0.43622759
H    1.62252133   0.55639847  -1.50940534
O   -0.89308754   1.17243886   0.98970703
H   -1.38765566   1.69175653   0.35571698
H    0.00940191   1.20182383   0.67208908
