37
Energy:  -1028.43710588
O   -2.35843738  -0.20582983  -2.33379908
H   -2.10941445   0.69813171  -2.14125567
H   -3.04523056  -0.12966702  -2.99617828
O    3.84530408  -0.34061626   1.12617885
H    3.36894409  -1.07716110   1.50934293
H    4.74109335  -0.44046084   1.44839694
O   -2.22279295   0.00854249   2.37004554
H   -2.48572556  -0.58610456   1.66755485
H   -2.96253319   0.00431806   2.97749791
O    1.89237839  -2.05235544   2.07933021
H    1.87982538  -2.96468442   2.36869176
H    1.32527093  -2.03728880   1.30836071
O    0.15728343  -1.41048199   0.06612496
H    0.33588934  -1.35336657  -0.87252812
H   -0.78513150  -1.56851119   0.12191659
O    1.84458063   1.37105243   0.59801609
H    1.80232643   1.46507742  -0.35361710
H    2.63572493   0.85509773   0.75330066
O   -2.60317267  -1.52440981   0.09402791
H   -2.65702027  -1.08134065  -0.75274361
H   -3.15486906  -2.30026047  -0.00556475
O   -0.70729702   1.81277663   0.96206815
H   -1.46341165   1.40063145   1.37999023
H   -1.00994765   2.03172360   0.08076419
O    0.29276155  -0.95744814  -2.66209030
H    0.45986142  -1.61235099  -3.33988950
H   -0.65036722  -0.80035015  -2.70747965
O    1.33127713   1.52846799  -2.10415700
H    1.11939497   0.63973430  -2.38962193
H    2.01555153   1.81768978  -2.70777207
O    0.58784518   0.30229100   2.63892616
H    1.08301384  -0.51687147   2.64248900
H   -0.30415856   0.04453054   2.87156479
O   -1.28840894   2.24707932  -1.67933968
H   -1.51990329   3.13224703  -1.96062304
H   -0.37199442   2.14552727  -1.93644558
H    0.63202621   1.16097466   1.40734718
