37
Energy:  -1028.20667247
O   -1.41166349  -0.23768200  -0.44831948
H   -1.66943928   0.32634082  -1.17747086
H   -2.23223429  -0.43766604   0.00212674
O    2.64770415  -0.51953112   0.41646357
H    2.08712599  -1.00271549  -0.19059231
H    3.28546101  -1.16551475   0.72011335
O   -3.18276199  -0.51665788   1.69834959
H   -2.52994814  -1.09448079   2.09355412
H   -4.02403971  -0.90149409   1.94408264
O   -0.90565199  -1.80103468   2.59850557
H   -0.77286040  -2.24319782   3.43701019
H   -0.57879409  -2.42052986   1.94610884
O    0.14483927  -3.40167480   0.66646249
H    0.14473456  -4.33194040   0.44099019
H    0.40514168  -2.95898474  -0.14131224
O    0.18199554   2.26319440  -0.02409775
H   -0.34433102   2.25018727  -0.82349942
H    1.08775378   2.23860086  -0.33268977
O    0.80662464  -1.53500280  -1.29915627
H    1.00622423  -1.08175864  -2.11827872
H   -0.02154150  -1.15268669  -1.00897173
O   -1.73018702   1.80844900   1.73085197
H   -2.37457075   1.10381087   1.79783376
H   -2.16685219   2.57004298   2.11233591
O    1.24735200   0.55657953  -3.15731583
H    1.69560940   0.54978359  -4.00304094
H    1.84110750   1.03024217  -2.57479549
O    2.66836476   1.76550211  -1.09539734
H    2.87900788   0.99851056  -0.56287008
H    3.46276039   2.29902458  -1.07256753
O    0.49708393   0.42211530   1.81373924
H    0.06178854  -0.35035523   2.17434852
H    1.31576570   0.08732856   1.44780231
O   -1.14002226   1.73878675  -2.38689733
H   -0.38527095   1.34140713  -2.82126093
H   -1.59356332   2.21539975  -3.08214721
H   -0.34565638   1.45633843   1.12775244
