37
Energy:  -1024.98304415
O   -0.50411445  -1.99445750  -2.22171599
H   -0.48631006  -2.49674001  -3.03634912
H   -0.53242895  -1.08027020  -2.50401319
O    0.08595046  -3.24629705   1.68928868
H   -0.73984439  -3.11664362   1.22293612
H    0.09320794  -4.17765538   1.91008463
O   -2.65846911   4.12657437  -0.21908256
H   -2.84876693   4.88266570  -0.77437030
H   -3.29033752   4.18973425   0.49714714
O   -1.99525915  -2.40315663   0.07292342
H   -2.91365855  -2.63652931  -0.06239690
H   -1.62874489  -2.34940124  -0.80969173
O    2.28492460   0.00575216   1.28488265
H    1.77040905  -0.26528842   2.04517378
H    2.27533635   0.96235579   1.31727728
O    0.46109084  -0.90607247   3.10925447
H    0.40978329  -0.92902047   4.06480288
H    0.32816061  -1.81491973   2.83988842
O    1.90402729   2.62814470   0.38757543
H    2.21550869   3.52272363   0.52519712
H    0.98976315   2.73036782   0.12318299
O    1.46229471  -1.92153735  -0.29341619
H    0.86480941  -2.06792999  -1.02677310
H    1.11836361  -2.47218708   0.40995293
O   -0.85709432   0.01267500   0.83376623
H   -0.57786440  -0.15476871   1.73389128
H   -1.39475489  -0.74529701   0.60435090
O   -0.22627360   0.70132017  -2.75959034
H   -0.51638633   1.32993821  -2.09860182
H   -0.32781351   1.16376987  -3.59149284
O    2.05757511   0.43080159  -1.26836128
H    1.36586760   0.51798459  -1.92423603
H    2.20021533   1.32218892  -0.95006230
O   -0.64598256   2.31973536  -0.59177790
H   -0.86627235   1.58739686  -0.01611777
H   -1.35681409   2.94787332  -0.46374242
H    1.95430831  -0.52928172  -0.08206477
