37
Energy:  -1025.91516502
O   -0.80855987  -0.57748478  -0.39528065
H   -1.14590505  -0.20306459  -1.20906170
H   -1.46901213  -1.21940371  -0.13456097
O    1.81326962   0.66505833   0.78567515
H    1.98290389   1.39796547   0.19381099
H    1.99316028  -0.11444886   0.26009001
O   -2.29864970  -0.34294020   2.68196711
H   -2.99694856  -0.35503648   3.33653890
H   -2.46224517  -1.11632964   2.14221055
O    0.41375460  -0.68297228   2.53628843
H   -0.48667771  -0.70497580   2.86027816
H    0.57915319  -1.57341427   2.22646877
O    0.61987899  -3.12646777   1.27748316
H    1.11868582  -2.84946819   0.50891642
H    1.08582297  -3.89753695   1.60087206
O   -0.47925435   1.59920498   1.65611670
H   -1.31874506   1.23784449   1.94055612
H   -0.67985586   2.05943390   0.84114417
O   -2.13335964  -2.57260108   1.00345990
H   -1.26259506  -2.95332385   1.11770119
H   -2.70340483  -3.32316093   0.83630654
O    1.94758231   2.58538051  -1.15872756
H    1.03962788   2.87687615  -1.07577649
H    2.46051760   3.39352763  -1.15348652
O   -1.05656797   0.88114422  -2.73103683
H   -1.51996560   0.80332709  -3.56496667
H   -0.14251564   0.69552034  -2.94617388
O    1.66905371   0.46853719  -2.93619098
H    1.91121267   1.22896266  -2.40766095
H    2.23311020   0.52300315  -3.70762185
O    1.65604791  -1.54408955  -0.79344510
H    1.98133653  -1.24501302  -1.64254603
H    0.73995933  -1.26710678  -0.77629565
O   -0.77167709   2.84387264  -0.80381952
H   -1.00057235   2.23047229  -1.50208797
H   -1.35151795   3.59271115  -0.94259026
H    0.59882535   0.53988662   1.64971418
