37
Energy:  -1027.33954576
O   -3.18914416  -0.27270378  -1.56382832
H   -2.55200913  -0.83235597  -2.00776550
H   -3.99259043  -0.37175533  -2.07460688
O    2.33862367  -1.29429128   0.85454635
H    1.98755893  -0.97277707   1.68497636
H    2.88388912  -2.04236648   1.09806418
O   -1.50142614  -1.66522468   2.51999513
H   -1.13791799  -1.85491529   1.65506095
H   -1.92249070  -2.48206974   2.78776487
O    0.90015568  -0.41809553   3.07261257
H    1.12001182  -0.27054829   3.99246307
H    0.08846125  -0.92478212   3.09816069
O   -0.89229473  -1.46247001  -2.61182568
H   -0.73214111  -2.07828956  -3.32691235
H   -0.29293118  -0.73583555  -2.78211233
O    1.89778205   2.69144115   0.22653739
H    2.42271090   3.49185637   0.23066336
H    2.43543071   2.05426857  -0.24375705
O   -0.31319529  -1.51076740   0.08746643
H   -0.46077497  -1.65208953  -0.84767000
H    0.63837244  -1.53905653   0.18721827
O   -2.52831833   0.45442355   1.08341961
H   -2.37888483  -0.25351545   1.71009644
H   -3.02464087   0.04618217   0.37402919
O    0.73791607   0.77696593  -2.62939123
H    0.94545845   1.35339419  -3.36484243
H    1.56624981   0.67944270  -2.15972721
O    3.01690916   0.53684797  -1.09172123
H    3.92609429   0.40167431  -1.35882109
H    2.86792839  -0.11645600  -0.40817861
O   -0.17666287   1.53610727   1.48182118
H    0.23261749   0.94904344   2.11749209
H    0.55146252   2.03714946   1.11436779
O   -1.26503184   1.57149985  -0.89596442
H   -0.51179023   1.43980295  -1.47173769
H   -1.99185837   1.14556401  -1.35042422
H   -1.30995003   1.20625725   0.58782398
