37
Energy:  -1024.19396855
O   -1.94897938  -1.18753042  -1.72111052
H   -2.45073775  -1.61711895  -2.41387606
H   -2.57815656  -1.06403786  -1.01039433
O    3.33248958   0.27075653  -0.90887062
H    2.67375176   0.28148046  -0.21447784
H    4.16478480   0.39237080  -0.45200469
O   -3.22894745  -0.59111092   0.65638827
H   -2.76259632  -1.15832058   1.27040918
H   -4.14392632  -0.63837866   0.93353675
O   -0.29293065   0.33027184   3.08097648
H   -0.18212484   0.43905425   4.02549769
H   -0.69337842  -0.53374125   2.98425617
O   -1.47014843  -2.03676036   2.22911196
H   -1.57767663  -2.87108229   2.68581367
H   -0.88924395  -2.23791823   1.49541083
O   -1.55586652   1.57732837   0.97720171
H   -2.26190650   0.94556474   0.84076815
H   -1.15063124   1.30991147   1.80212863
O    0.04264705  -2.12057091  -0.05945554
H    0.84093832  -2.37844242  -0.52039500
H   -0.59128492  -1.94794385  -0.75556042
O   -0.76338486   1.26649181  -1.50064952
H    0.01680535   1.35226764  -2.04853417
H   -1.13275909   0.41660645  -1.74041900
O    2.39526805  -2.29993938  -1.41592521
H    2.86074735  -1.46482597  -1.36959518
H    3.00245948  -2.88857387  -1.86432218
O    1.80971385   2.15666998  -2.19068307
H    2.21650551   2.49768736  -2.98721276
H    2.43885226   1.51856432  -1.85417472
O    1.13089490   0.25212316   0.69584045
H    0.92311353   0.30425183   1.62876133
H    0.78163148  -0.59504433   0.41915624
O    0.33377286   3.12191364  -0.03425359
H    1.01582641   3.05079132  -0.70206825
H    0.38565358   4.02929499   0.26607842
H   -0.64693288   1.93346755  -0.13854380
