37
Energy:  -1024.49265643
O   -3.16001533  -0.04078529   1.06289503
H   -4.10066347  -0.14331757   1.20746355
H   -2.75583752  -0.38583997   1.85901651
O    3.21312862  -1.49685194  -0.88432088
H    3.00575557  -1.41092256   0.04618673
H    3.98868847  -2.05742588  -0.90658375
O   -1.39758639  -0.88928374   3.01622186
H   -1.50297553  -1.14226038   3.93335205
H   -0.98271055  -1.64722626   2.60435656
O    2.31696152  -1.21796239   1.70372229
H    2.83004695  -1.49408056   2.46315231
H    1.60294862  -1.85341776   1.65259591
O   -0.91971258  -0.79426535  -0.43012964
H   -0.90465463  -0.56940244  -1.36042088
H   -1.82593898  -0.64337386  -0.16139686
O    0.87914715   1.96060303  -0.47325290
H    0.37425569   2.48369698  -1.09589982
H    1.43028295   1.40153369  -1.02090484
O   -0.00861589  -2.63282659   1.38210809
H   -0.13079794  -3.53940080   1.10028084
H   -0.28935136  -2.10845808   0.63213669
O   -1.47898033   2.06184987   0.61500153
H   -2.19744107   1.45992810   0.80925961
H   -1.70315295   2.43609324  -0.23700809
O   -0.62445399   0.18737177  -3.00326044
H   -0.80342337  -0.28847200  -3.81429343
H    0.33028430   0.19479569  -2.93505826
O    2.05615831   0.40295433  -2.40557109
H    2.47118592  -0.32099536  -1.93665662
H    2.74720843   0.75172398  -2.96863531
O    0.46043709   0.80068511   1.85258741
H    1.22322105   0.22337476   1.81934223
H   -0.17252981   0.33099449   2.39570386
O   -1.25058746   2.73031093  -2.06651356
H   -1.57231443   3.36439622  -2.70734072
H   -1.17568317   1.91122322  -2.55612210
H   -0.02163535   1.56767162   0.68382708
