37
Energy:  -1026.01845815
O   -1.38061706  -1.11934955  -3.54353996
H   -1.57410844  -1.09283618  -4.48060451
H   -1.87255093  -0.38506195  -3.17604216
O    1.64895382  -1.47205250   2.65614278
H    2.32815241  -2.10496056   2.88927047
H    1.62644933  -1.48569546   1.69930462
O   -1.08165561  -1.39491632   2.36399211
H   -0.17662098  -1.56213349   2.62701796
H   -1.60124498  -1.99896812   2.89444490
O    1.36997721   1.26089052   2.85805053
H    1.39822544   1.58439398   3.75848343
H    1.60005189   0.33443243   2.92856932
O   -0.74449833  -2.76278808  -1.49156421
H   -0.91024204  -2.28332245  -2.30327449
H   -0.81426226  -3.68483089  -1.73895440
O    2.89003491   2.19371695   0.73959729
H    3.62796569   2.72957277   1.03036964
H    2.43854430   1.94853081   1.54723077
O   -2.12303641  -0.91834750  -0.00285772
H   -1.77153022  -1.66789558  -0.48332929
H   -2.44287918  -0.32578700  -0.68315508
O   -0.86259134   0.98314968   1.27492050
H   -0.13240522   1.20043420   1.85444403
H   -0.74640982   1.55639987   0.51721481
O   -0.51863066   2.34336847  -1.07792966
H    0.30235062   1.91537498  -1.32091764
H   -0.33079739   3.27943618  -1.14668833
O    1.81600774   0.96725283  -1.41093722
H    2.43715834   0.91983587  -2.13768023
H    2.29790861   1.40906557  -0.71179138
O    0.94697558  -1.20776642   0.03863804
H    1.29902453  -0.52330466  -0.53040105
H    0.55400208  -1.84081095  -0.56224324
O   -2.62334636   0.85744231  -2.03442522
H   -3.39103754   1.38825052  -2.24685105
H   -1.94092930   1.49528674  -1.82539580
H   -1.33180204  -0.43868200   1.16050002
