37
Energy:  -1024.79935100
O   -2.05858369   2.17726437  -0.59842674
H   -1.86046390   2.17896815  -1.53489751
H   -2.88020136   2.66300095  -0.52606504
O    2.00489429   0.52502642   2.15555103
H    1.33475179   0.11788155   2.70452637
H    2.57283776   0.98644509   2.77261251
O   -2.40867058  -1.94392890   0.18602421
H   -1.90769387  -1.62569755  -0.56496380
H   -3.19759239  -2.32756208  -0.19693769
O   -0.80893964  -2.86089161   2.26363619
H   -1.38622118  -2.70737714   1.51569824
H   -0.81780842  -3.81061859   2.38268177
O    1.78861986  -0.89700813  -2.14891875
H    2.15390800  -1.53732865  -2.75948083
H    2.24262318  -1.06637995  -1.32343343
O   -0.89072561  -0.52320814  -1.58261383
H   -1.10802189   0.07599120  -2.29673869
H    0.01057640  -0.79189697  -1.76063870
O    0.35351533   1.67783230   0.30516122
H    1.00407128   1.33983727   0.92060266
H    0.83818991   1.80544422  -0.51033715
O   -1.70475819   0.44337484   1.34220017
H   -1.25555926   0.18385511   2.14662647
H   -2.09626418  -0.36613310   1.01409681
O    1.50007728   1.82357180  -2.19575075
H    1.72864782   0.89712481  -2.27113863
H    2.29726686   2.28883240  -2.44923289
O    2.99553420  -1.21304391   0.24625068
H    2.71334965  -0.65311679   0.96949708
H    3.65627919  -1.78835155   0.63182692
O   -0.19590540  -0.50000834   3.42135401
H   -0.34301251  -1.39249267   3.10820377
H   -0.44909276  -0.52466632   4.34413242
O   -1.10654689   1.80573828  -3.13050894
H   -1.26370319   2.08938051  -4.03110920
H   -0.16833037   1.94027531  -2.99678757
H   -1.12442713   1.38609862   0.34196822
