37
Energy:  -1025.24573202
O   -2.24110223  -1.58009346   0.61416188
H   -2.37729892  -0.95564882   1.32672850
H   -3.05450151  -2.08333943   0.57732491
O    1.68875803   1.77600378   2.20891854
H    1.94339246   2.43067828   2.85914500
H    1.38360627   1.03040617   2.72583096
O   -2.04479028   0.40150854   2.51529377
H   -2.62783047   0.78655133   3.16953993
H   -1.26418105   0.14906471   3.00839942
O    0.30832514  -2.27907652   1.39784244
H    0.45692257  -3.22437599   1.42149747
H   -0.59400195  -2.18555359   1.09240646
O    0.45664150  -0.40060367   3.40345021
H    0.49918994  -1.11466982   2.76742268
H    0.71079743  -0.80333967   4.23377565
O    2.71687090   1.30325601  -0.30085152
H    3.62768215   1.56080896  -0.44340395
H    2.55018637   1.50982479   0.61881008
O   -1.71698315   0.30090109  -1.32699506
H   -1.86819071  -0.00305278  -2.22197002
H   -1.97102646  -0.43941532  -0.77597287
O   -0.51899484   1.62772080   0.57454831
H    0.25098207   1.83979423   1.10217723
H   -1.17272573   1.33652596   1.21021593
O    0.95843530  -0.47379725  -3.53870218
H    1.12585546  -0.89592003  -2.69607848
H    1.68098260  -0.75923970  -4.09788002
O    0.44561455   1.67487274  -1.86778492
H    0.60434403   1.10265847  -2.61852299
H    1.29924046   1.75464800  -1.44212008
O    1.28498752  -1.02769389  -0.86296557
H    1.06409430  -1.52532412  -0.07569041
H    1.94903208  -0.40220527  -0.57306790
O   -1.78464431  -0.58003711  -3.85812325
H   -2.15380271  -0.66302771  -4.73736525
H   -0.83936032  -0.65905879  -3.98628558
H   -0.60064565   1.20082153  -0.94205498
