37
Energy:  -1028.11299399
O   -1.47726958  -1.04055973  -1.64132966
H   -1.12090226  -0.59850919  -2.41193040
H   -2.18348253  -0.46820283  -1.34149188
O    3.20106989  -1.41550066   0.37808259
H    2.73309614  -1.48432975   1.21024541
H    3.93501083  -2.02386094   0.46445565
O   -3.18248949   0.85316263  -0.63553101
H   -4.05303030   1.05251446  -0.97998622
H   -2.61681937   1.53053631  -1.00622503
O    1.43458673  -1.53766908   2.50362046
H    1.01701896  -0.71879438   2.77066585
H    1.54964977  -2.02546714   3.31912361
O    1.07342731  -1.47014467  -1.36507413
H    1.22682909  -0.82559661  -2.05591242
H    1.89002125  -1.48588509  -0.86591641
O   -0.15566395   0.70313908   2.86101915
H   -0.24753065   1.36029449   3.55090257
H   -1.05282863   0.43137239   2.66744680
O    0.07487510   0.46132838  -3.29934956
H   -0.27471030   1.27672644  -2.93997803
H    0.20238464   0.64451272  -4.23016462
O   -2.50839310  -0.31302288   1.79281967
H   -3.30064988  -0.61916160   2.23422665
H   -2.82960492   0.18082884   1.03838922
O    0.26299618   1.10396734   0.15748172
H    0.18606998   1.10135414   1.11158201
H    1.19846234   1.22187942  -0.00753844
O    2.92030247   1.23411626  -0.33610998
H    3.71519038   1.75609121  -0.44532172
H    3.23534144   0.36917181  -0.07371067
O   -0.55738873  -1.89136348   0.65122174
H    0.14038438  -1.90901035   1.30622794
H   -1.29630516  -1.47914470   1.09878182
O   -1.16795005   2.40059570  -1.72029436
H   -0.61154005   2.07602168  -1.01227496
H   -1.03537951   3.34855227  -1.71435845
H   -0.31590827  -1.46862798  -0.76363568
