37
Energy:  -1031.29860435
O    0.25814073  -0.46400197  -1.20142226
H    0.23092452   0.27724433  -1.80643883
H   -0.49361045  -1.00278781  -1.44802283
O    2.36308980   1.23966617   1.14493930
H    2.62732224   0.46670606   0.64599467
H    3.12229737   1.44395268   1.69092715
O   -2.03907755  -0.91350610   1.06465410
H   -1.66855286  -1.64533158   1.55798439
H   -2.23732922  -1.28069905   0.20320331
O   -0.32675125  -2.33704721   2.71619984
H   -0.46790441  -2.87917739   3.49234577
H    0.47881834  -2.67864787   2.32812966
O    2.02108904  -2.99587636   1.54905605
H    2.36627862  -2.38299108   0.89986605
H    2.67609135  -3.69245593   1.59356130
O    2.74097062  -1.06627914  -0.28916132
H    1.88078517  -0.95373963  -0.69369525
H    3.32518430  -1.26871971  -1.01987607
O   -2.63918872   1.22985768  -2.09107839
H   -3.31685212   1.74998483  -2.52290234
H   -1.82091420   1.51917630  -2.49475324
O   -1.57167070   1.58164435   0.42183297
H   -2.07068391   1.53506768  -0.39367195
H   -0.85851856   2.19133951   0.23231339
O   -0.00901827   1.86613811  -2.67634932
H    0.44938005   2.19938671  -3.44774299
H    0.32309745   2.39654520  -1.95205705
O    0.70851094   2.97660412  -0.24538779
H    1.38241779   2.46418279   0.20127291
H    0.89356303   3.88289396   0.00083627
O   -0.03408847   0.34445316   2.13734882
H    0.08584035  -0.50635415   2.55922067
H    0.85226421   0.62875564   1.91422807
O   -2.29681947  -1.48168301  -1.60246509
H   -2.78984424  -2.11702537  -2.12159755
H   -2.59932825  -0.62932212  -1.91583580
H   -1.23575363   0.35304968   1.19761865
