37
Energy:  -1029.58633952
O   -3.62437735   1.67300227  -0.18349488
H   -4.50397956   2.04600264  -0.24182592
H   -3.25711697   1.78611195  -1.06016920
O    3.18990227   0.13081342   0.29799370
H    3.02253134  -0.80256499   0.42846810
H    4.09160658   0.25654893   0.59354703
O   -1.77661864  -1.89629024   1.75575816
H   -1.01302718  -1.99041510   2.32523200
H   -2.43814227  -2.46833014   2.14484515
O    0.70838275  -1.69257890   2.98662170
H    1.04673632  -1.96188272   3.84056793
H    1.30920359  -2.08779840   2.35491946
O    2.18594286  -2.38290178   0.75215726
H    2.42352406  -3.24153311   0.40210116
H    1.41388915  -2.12389304   0.24908730
O   -0.09152974   1.93489044  -0.35853370
H   -0.80186221   2.10549236  -0.97704371
H    0.67161575   1.76440175  -0.91059747
O   -0.03256218  -1.30413406  -0.37925163
H   -0.30874490  -1.08081324  -1.26811763
H   -0.82423172  -1.64055365   0.04064485
O   -1.65047095   0.80309584   1.41244420
H   -1.86029028  -0.10910610   1.61268236
H   -2.42408999   1.13244632   0.95497980
O   -0.30877753  -0.22711769  -2.93142108
H   -0.18584107  -0.72624341  -3.73888129
H    0.54644578   0.16739515  -2.76058619
O    1.96000378   1.09870192  -1.97705663
H    2.55964331   1.66488336  -2.46296080
H    2.50049472   0.71152325  -1.28843912
O    0.93798284   0.77018637   1.75140139
H    0.86274518   0.01331767   2.33253898
H    1.78851177   0.66230919   1.32573144
O   -1.96990151   1.92251219  -2.38664424
H   -1.53006751   1.13887603  -2.71632936
H   -2.10878904   2.46445886  -3.16332687
H   -0.28311715   1.16845981   0.94627398
