37
Energy:  -1025.70968175
O   -0.68157336   1.39532522  -2.40405764
H   -0.82524822   1.62630610  -3.32179247
H   -1.55097516   1.16688891  -2.07513636
O    1.96935590  -1.16308991   0.53639654
H    1.83886190  -0.96922751   1.46463171
H    2.57802264  -0.48917826   0.23374206
O    1.27754911  -0.39285516   3.06816099
H    1.03370495   0.50260181   2.83379229
H    1.82933020  -0.29599414   3.84429721
O   -0.85840210  -2.04444053   2.38043566
H   -1.27940532  -2.58404439   3.04962607
H   -0.14067109  -1.60872081   2.84004677
O   -2.25602536  -2.10728825  -1.79290934
H   -2.67379144  -1.24982105  -1.71257656
H   -2.83359352  -2.60213658  -2.37409089
O   -1.34319320   0.18512102   0.82012095
H   -0.84425192   0.85863694   1.28236089
H   -1.36982656  -0.55358843   1.42825815
O   -0.10943633  -2.56579263  -0.23215272
H   -0.89432856  -2.53120575  -0.77894315
H   -0.44294286  -2.60530694   0.66419758
O    0.38632179   1.99960373   1.96389261
H    0.66273802   2.32328278   1.10653750
H    0.13311827   2.78611729   2.44712780
O    0.94677200  -0.76189928  -1.81661290
H    1.75343563  -0.24878782  -1.86396548
H    0.26308647  -0.16235291  -2.11552776
O    3.04069553   0.86844874  -1.01422702
H    2.48914651   1.64028384  -0.88657084
H    3.88549293   1.22081886  -1.29419934
O   -3.01094652   0.50206231  -1.28547606
H   -2.55335661   0.42173031  -0.44858295
H   -3.87078815   0.85454049  -1.05599111
O    1.01645094   2.72458397  -0.64496510
H    0.37698611   2.33668763  -1.24233685
H    1.06487187   3.64340699  -0.90888084
H    0.88733939  -1.55434714  -0.52398688
