37
Energy:  -1027.90176636
O   -2.59146162  -0.39930953  -1.30732801
H   -2.09767562   0.03103334  -2.00533392
H   -3.40577188  -0.67807880  -1.72615773
O    2.63650676  -0.21676563   0.97922445
H    2.38025633  -0.90007119   0.35982065
H    3.31578439  -0.62317732   1.51740963
O   -3.10080698   0.08029705   3.18679887
H   -3.66115566   0.08389543   3.96283253
H   -2.46562888  -0.61631721   3.35265784
O   -0.89062741  -1.58593441   3.04116030
H   -0.68541457  -2.40420734   3.49343119
H   -0.88714293  -1.81764705   2.11243593
O   -0.68981949  -1.61611646   0.30654738
H   -1.38630292  -1.42274045  -0.32094637
H    0.07666717  -1.80265033  -0.23561050
O    0.11052334   1.69278153  -0.37861472
H   -0.28084051   1.59516141  -1.24667952
H    1.03688274   1.86161629  -0.55061743
O    1.71071932  -1.85617468  -1.05249426
H    1.74304717  -1.28025834  -1.81637063
H    1.99776429  -2.70788973  -1.38176391
O   -2.07351067   1.13335034   0.94371034
H   -2.54898394   0.85871690   1.72775976
H   -2.49404892   0.65601494   0.22849685
O    1.81975217   0.09326732  -3.00873790
H    2.36787398   0.05582342  -3.79256970
H    2.26262343   0.71931421  -2.43588347
O    2.79028322   1.70928045  -0.98057935
H    2.96307510   1.10845262  -0.25574783
H    3.44284927   2.40211688  -0.87876046
O    0.26510724   0.72045732   2.05091107
H   -0.08586585   0.00705214   2.58392400
H    1.13978076   0.42409626   1.79922036
O   -0.79718615   1.01189551  -2.87948138
H    0.05875826   0.63949594  -3.09140019
H   -1.00104774   1.58205331  -3.62082636
H   -0.60051914   1.17575075   0.93342704
