37
Energy:  -1026.42455422
O   -3.19339364  -1.80107869   1.41460264
H   -4.09807732  -1.65888133   1.69309716
H   -2.73797170  -0.99499284   1.65760118
O    2.45422629  -1.46001720   0.68716307
H    1.89011524  -1.68160665   1.42804678
H    3.27903567  -1.90976169   0.87060574
O    0.41249076  -2.02878121   2.44174939
H   -0.10919392  -2.61935615   1.89833594
H    0.37448734  -2.41241202   3.31788579
O   -1.13034202  -3.30719390   0.53588498
H   -1.37917594  -4.22029823   0.39251828
H   -1.94424631  -2.87426436   0.79349645
O    0.36044537  -1.67210509  -1.08712325
H    1.18214983  -1.68942231  -0.59647701
H   -0.19906013  -2.30764307  -0.64071881
O    1.54244727   2.59884976  -2.49841083
H    2.28378267   3.10458323  -2.83140833
H    1.88122119   2.16288036  -1.71649346
O   -1.19019402   0.11773818   1.72016103
H   -0.58787827  -0.52395800   2.09655656
H   -0.76626492   0.96247276   1.87161881
O   -1.17214613   0.43493320  -0.97376253
H   -1.28212964   0.28829233  -0.03427760
H   -1.19160582   1.38688337  -1.07196656
O    0.45601261   0.13139426  -3.00168181
H    0.66199773  -0.26736670  -3.84713534
H    0.86153720   0.99761256  -3.03972796
O    1.78761779   1.04388938  -0.27387263
H    1.37860990   1.51861063   0.44971850
H    2.21355536   0.29398672   0.14140443
O    0.19102556   2.50979784   1.45415681
H    0.35565054   3.23251512   2.05980538
H   -0.21052417   2.92366399   0.69015127
O   -0.77615505   3.16178698  -1.08482333
H   -1.34890205   3.84798036  -1.42736000
H   -0.00942140   3.18111111  -1.65751690
H   -0.11151647  -0.36319358  -1.65609175
