37
Energy:  -1027.96150917
O   -3.08005097  -0.30290617  -0.85186402
H   -2.55829694   0.06453288  -1.56530156
H   -3.97879377  -0.04182659  -1.05268902
O    3.14721689   0.87855334   0.90421977
H    2.60559932   0.12576323   0.66717696
H    3.92356649   0.49630413   1.31336361
O   -0.49358235  -0.61149614   3.17667503
H   -0.31971455  -1.43614589   2.72285279
H   -0.73305846  -0.87275542   4.06584691
O   -0.08726853  -2.77194005   1.50677745
H    0.19660881  -3.66975646   1.67874025
H   -0.89791399  -2.86812993   1.00694418
O   -2.33858097  -2.82371511   0.01305566
H   -3.00021221  -3.47160325  -0.22926004
H   -2.66682900  -1.99951719  -0.34636451
O    0.00349533   2.17543319  -0.47258834
H    0.88490689   2.25102351  -0.83814491
H   -0.53895040   1.89566298  -1.20995738
O    1.12227241  -0.73678252   0.09914988
H    1.05646720  -0.85393137  -0.84857248
H    0.75434453  -1.54050157   0.46643264
O   -1.60230270   0.86681492   1.12680804
H   -1.55294039   0.26590106   1.87024449
H   -2.20204970   0.44153457   0.51388717
O    1.17374454  -0.23512718  -2.66188146
H    1.64059462  -0.70401810  -3.35356358
H    1.75217763   0.49218757  -2.43240321
O    2.52360310   1.94405665  -1.55153012
H    2.94949926   1.65434901  -0.74473783
H    3.09200201   2.63710493  -1.88744470
O    0.72862071   1.62972104   1.99307683
H    0.53590408   0.95157464   2.64054082
H    1.65487684   1.50683794   1.78527603
O   -1.30836337   0.94566869  -2.55418896
H   -0.51003523   0.44693290  -2.72787443
H   -1.52398619   1.35323825  -3.39301296
H   -0.26761521   1.57208499   0.87188206
