37
Energy:  -1024.39565739
O   -2.72040066  -0.22223924  -0.51064309
H   -3.63048775  -0.08682991  -0.77453257
H   -2.77628814  -0.53393196   0.39265978
O    2.98419351  -0.07256879   0.18497179
H    2.75075587  -0.69607873   0.87270289
H    3.92482320  -0.19636322   0.05799711
O   -2.28522652  -1.20645828   2.03531123
H   -2.83094512  -1.38885835   2.80026435
H   -1.76336939  -2.00027209   1.91802259
O    1.75525294  -1.64979027   2.11027017
H    2.14209589  -1.99975356   2.91283485
H    1.09652793  -2.29730652   1.85920062
O   -0.44276759  -3.15461478   1.32422019
H   -0.51882490  -4.10724465   1.37847390
H   -0.58017999  -2.95524633   0.39815221
O    1.38963677   2.18668277   0.63358073
H    1.35743013   2.79788293  -0.10237371
H    2.12129163   1.60409231   0.42986189
O   -0.96565763  -2.23024041  -1.20798242
H   -1.19869810  -2.68710355  -2.01619035
H   -1.65258759  -1.57289659  -1.09726576
O   -1.16003706   2.00070009   0.13071919
H   -1.72489132   1.35230645  -0.28970582
H   -0.94680713   2.62116144  -0.56626902
O    0.58616824   1.76158565  -3.41637143
H    0.64628495   1.02247468  -2.81111711
H    0.89197288   1.41190676  -4.25329439
O    0.70196768  -0.04776712  -1.36011784
H    0.25357988  -0.89342554  -1.35363139
H    1.56234924  -0.22941985  -0.98199391
O   -0.06046337   0.38886075   1.86751888
H    0.62257288  -0.25024549   2.07058670
H   -0.88052363  -0.07135237   2.04622788
O    0.37017392   3.64018956  -1.49881274
H    0.46761090   3.09861777  -2.28203550
H    0.37178519   4.53934843  -1.82705438
H    0.06567518   1.53725806   0.86405908
