37
Energy:  -1027.62206316
O   -2.02567836  -1.64179968   1.81926515
H   -1.77812229  -1.15306656   2.60417775
H   -2.68546173  -2.26527450   2.12290458
O   -1.33513717   2.22861452   2.00321043
H   -1.29708416   1.58038936   2.70647991
H   -1.95152375   2.88937159   2.31896275
O   -1.88990768   0.41815315   0.00363003
H   -2.13191268  -0.33101238   0.54807144
H   -1.80454937   1.14530808   0.62022676
O    0.44600802  -1.59022929   0.55808802
H    0.95339196  -1.14705558   1.23808099
H   -0.36477291  -1.85082051   0.99507584
O   -0.43743555   0.31670638  -4.43206037
H   -0.53405358   0.55147286  -5.35498047
H    0.50715833   0.33249182  -4.27803095
O    2.04222479   0.04619661  -3.09774154
H    1.93777738  -0.85566897  -2.79449069
H    2.94987651   0.09490055  -3.39778844
O   -0.92579654   0.08356285   3.69586208
H   -0.00644578  -0.02120656   3.45081230
H   -0.92771974   0.02467863   4.65124724
O   -1.08459732  -0.89000789  -2.11877566
H   -1.05819121  -0.53882211  -3.00883359
H   -0.41758296  -1.57650225  -2.11176269
O    1.58875914  -0.05268238   2.56312457
H    1.64368901   0.77954067   2.09342322
H    2.46386299  -0.17962859   2.92960751
O    1.26941166   2.26717938   1.11148689
H    0.39197402   2.44406286   1.45067308
H    1.71239389   3.11529579   1.13789050
O    1.25016103  -2.35200070  -1.93451290
H    1.42777523  -3.28576443  -2.04751883
H    1.14313545  -2.24067247  -0.98985244
O    0.33564886   1.09478663  -1.19772440
H    0.79170289   1.53992657  -0.48351365
H    1.02103248   0.90401101  -1.83810382
H   -0.90414981   0.17441327  -1.10124544
