37
Energy:  -1025.40863524
O    0.61590238   1.95650230  -0.85334970
H    0.96949276   2.34021847  -0.05087378
H   -0.33280661   2.04864982  -0.76564598
O    1.41824672  -0.56916753  -0.13591640
H    1.93388494  -0.88587165  -0.87756832
H    1.24264349   0.34928349  -0.34047221
O    1.29846838   2.61006827   1.69861993
H    1.75809504   3.28188623   2.20224261
H    0.81497058   2.10744620   2.35423627
O   -0.08228667  -2.88115023  -1.35738844
H    0.72038271  -2.67491471  -1.83636716
H   -0.22228895  -3.81493609  -1.51447181
O    0.91564815  -1.43035012   2.38590119
H    1.31752680  -1.10570044   1.58009228
H    1.56914803  -2.02230663   2.75840253
O   -0.15578622   0.90509753   3.36021756
H    0.27592846   0.07926688   3.14145282
H   -0.09238617   0.96387563   4.31350525
O    2.09525832  -1.71319499  -2.58396658
H    1.74611254  -0.93850850  -3.02463643
H    2.87954744  -1.94038614  -3.08347294
O   -1.27702845  -0.57268946  -1.68910879
H   -1.71829442   0.21339370  -1.36725565
H   -0.68997521  -0.25456159  -2.37496228
O    0.69530875   0.57382524  -3.25885622
H    0.64337347   1.08700489  -4.06519438
H    0.81394219   1.22486931  -2.56726417
O   -1.25652829  -1.68831200   0.68125214
H   -1.81433668  -1.01583150   1.07221457
H   -0.55059497  -1.81310598   1.31553634
O   -2.14089001   1.75088926  -0.55807534
H   -2.80026504   2.41765694  -0.75010991
H   -2.33082829   1.47696058   0.33920854
O   -2.43485247   0.50410119   1.87136232
H   -1.70443232   0.72632243   2.44871488
H   -3.20124545   0.49953952   2.44481925
H   -0.84665590  -1.68428504  -0.75907622
