37
Energy:  -1024.28405666
O   -1.61695415   1.10800309   2.61571635
H   -1.43371502   0.19672048   2.84423173
H   -2.44721622   1.30220443   3.05066759
O    0.93840103   2.20556921   2.66861910
H    1.13218123   2.89887662   3.29949620
H    0.00095743   2.04209427   2.77209511
O   -0.70196926  -1.50894244   2.86591577
H   -0.70630231  -2.09366402   3.62375067
H   -0.89815178  -2.07861607   2.12213070
O    1.28163054  -1.53926822  -0.44918983
H    0.61892468  -2.13914239  -0.10683949
H    1.07698514  -1.46207307  -1.38106591
O   -0.90990642  -2.91667269   0.49963630
H   -1.45717820  -2.47762175  -0.15148561
H   -1.09950153  -3.84775064   0.38396696
O    0.47551801   2.67382730  -1.33592253
H    0.40482560   3.62265844  -1.44058337
H    0.42354664   2.32950202  -2.22753395
O   -2.04103582  -1.31370603  -1.43223629
H   -1.73484719  -0.53981635  -0.95939897
H   -2.93836723  -1.09954369  -1.68750612
O    1.52243405  -0.27965940   1.82371855
H    1.46330358   0.60823790   2.17638528
H    0.83586877  -0.76557380   2.28060712
O    0.40221093   1.36309182  -3.69299692
H    0.38681124   0.41623344  -3.55351966
H    0.49638105   1.46465178  -4.64012385
O    0.23630104  -1.30766418  -2.98220520
H    0.26422325  -2.01399099  -3.62761564
H   -0.64356763  -1.35848219  -2.60873432
O    2.29998888   0.88255116  -0.38839656
H    3.19478678   1.20745732  -0.48841936
H    1.74821364   1.59741717  -0.70579619
O   -0.85659997   0.66764938  -0.00601746
H   -0.56353481   1.48002529  -0.41880075
H   -1.18707544   0.93920750   0.85029674
H    1.65815060  -0.31898166   0.34431012
