37
Energy:  -1025.21920395
O   -3.34243677   2.60616640   2.75070763
H   -4.24023232   2.27438698   2.73987175
H   -3.37041058   3.35477834   3.34655112
O    2.28018331  -1.51311842  -0.15774403
H    1.90449891  -1.76987736   0.68437707
H    2.10583378  -2.25652136  -0.73496683
O   -1.26677983   1.77953410   1.18168508
H   -0.62809178   1.44080317   1.80903727
H   -2.00348588   2.06723247   1.72087492
O    0.76524807  -2.17809990   2.02442839
H    0.10510371  -2.53775367   1.43189954
H    0.92912937  -2.87924726   2.65511623
O    1.05028143  -3.05539872  -2.06967588
H    0.30237304  -3.20509014  -1.49135299
H    1.13628958  -3.86916140  -2.56628916
O    0.05513934   3.02224994  -0.86865508
H    0.12504125   3.97427766  -0.79802368
H   -0.50935066   2.76823890  -0.13854462
O   -0.87819386  -2.96013480  -0.06414064
H   -1.73154032  -3.39231874  -0.02880357
H   -1.07998456  -2.04679853  -0.26743649
O   -1.06601636  -0.31612925  -0.58798017
H   -1.28123770   0.35694158   0.05768792
H   -1.14710852   0.12688503  -1.43260687
O   -0.63339477   1.24148923  -2.85817459
H   -1.06787120   1.57691458  -3.64236328
H   -0.47306495   2.01799901  -2.32192955
O    1.83470215   1.06338584  -0.11569277
H    1.34660404   1.83125694  -0.41295707
H    1.62860780   0.99409452   0.81648515
O    0.90352619   0.56356392   2.42726971
H    1.30378701   0.77107246   3.27164126
H    0.78406634  -0.38598321   2.44519840
O    1.56388792  -0.30037116  -2.34101358
H    0.85444059   0.23670920  -2.69380392
H    1.35297957  -1.19092030  -2.62149839
H    1.91320185  -0.20920799  -0.87805621
