37
Energy:  -1027.72788522
O   -1.72430182   1.76603988  -0.61752641
H   -2.06669212   1.92113297  -1.49783708
H   -2.32274460   1.12310398  -0.23709045
O    2.68016282   0.59665730   2.05703953
H    2.28989651  -0.14470983   2.51996375
H    3.25532428   1.00698568   2.70283498
O   -1.21663433  -0.12639868   2.90619699
H   -1.48384663   0.11190009   3.79391492
H   -0.46994381  -0.71246908   3.02951205
O    1.15477934  -1.56061689   2.90940141
H    1.38181043  -2.27779453   3.50130087
H    1.18349261  -1.95183262   2.03627046
O    1.32378344  -2.33516826   0.27665857
H    1.90407889  -1.68082068  -0.11233794
H    1.62931359  -3.16922773  -0.08003174
O    0.72203967   1.42377093  -1.49133981
H    1.50891496   0.92166837  -1.27932063
H    0.41301055   1.04875001  -2.31601682
O   -0.81662278  -1.21266634  -1.06924144
H   -1.58765790  -1.16841597  -0.50375174
H   -0.17952885  -1.72074026  -0.56704220
O   -2.82962035  -0.42403279   0.67251910
H   -2.43298654  -0.41118600   1.54358076
H   -3.73491697  -0.69498266   0.82501844
O   -0.45867516  -0.03340629  -3.51666614
H   -0.67041638  -0.61964218  -2.79021931
H   -0.25403384  -0.61891053  -4.24573305
O    2.80220100  -0.15648971  -0.58492750
H    3.65906025  -0.10942252  -1.00896613
H    2.95972383   0.14769874   0.30887773
O    0.21800154   1.33734608   1.07939860
H   -0.34291709   0.96620766   1.76047011
H    1.10537345   1.25708566   1.42920028
O   -2.40760608   1.91339420  -3.20747880
H   -1.82948099   1.24521468  -3.57563550
H   -2.80718066   2.33166861  -3.97011799
H   -0.28591197   1.53562294  -0.40710466
