37
Energy:  -1033.56141963
O    0.77564670  -0.42750304   1.58878197
H    0.77493466   0.46970187   1.92233060
H    1.60226867  -0.50583798   1.11255554
O    0.45394282  -0.91503862  -3.25218678
H   -0.45526358  -0.86835425  -2.95655841
H    0.40292946  -0.81175920  -4.20243035
O   -1.62997904  -1.19458502   2.28918453
H   -1.94422272  -0.34466267   2.59759134
H   -2.19340183  -1.83224922   2.72755765
O    2.94545249  -0.81220539  -0.03593873
H    3.88738318  -0.93058442   0.08647379
H    2.67399975  -1.56889883  -0.55551577
O    1.59921180  -2.70776818  -1.50904723
H    1.28240119  -2.18044658  -2.24239218
H    1.83585624  -3.54784873  -1.90210693
O    0.44395287   2.18460585   2.38457916
H    1.04542191   2.73177385   2.88962768
H    0.43569457   2.57889846   1.51239971
O   -1.99808647  -0.84448320  -1.97725383
H   -2.89570959  -0.93320376  -2.29761807
H   -2.02739474  -0.09189114  -1.38651017
O   -2.20251509   1.43558928   2.75575087
H   -2.74920349   1.98789367   3.31460996
H   -1.33324989   1.83372207   2.80157808
O    1.57525991   1.02286412  -1.59816462
H    1.23596115   0.44122803  -2.27846430
H    2.20298087   0.48594221  -1.11451898
O    0.22340863   2.91681647  -0.24673021
H    0.77184619   2.33450117  -0.77242687
H    0.22733702   3.74627424  -0.72445003
O   -0.57090852  -2.04549055   0.03865160
H    0.17848563  -2.41274408  -0.43013951
H   -1.16947230  -1.76019188  -0.65168015
O   -1.69738929   0.95749933   0.03888536
H   -1.10001935   1.67877373  -0.15896370
H   -2.14142415   1.22728731   0.84280037
H   -0.47529563  -1.19905756   1.27412774
