37
Energy:  -1024.44264654
O   -2.61317376   0.85449720  -0.37050166
H   -3.46384999   1.01945733  -0.77715872
H   -2.82167858   0.60834445   0.53070110
O    1.81762018  -1.30931185   2.12603814
H    1.32210626  -2.00923196   1.70082098
H    2.34442670  -1.75647757   2.78841987
O   -2.71106528   0.10965213   2.26628889
H   -2.59281738  -0.83775007   2.33468740
H   -3.29540219   0.33152696   2.99123977
O   -2.08153195  -2.51490030   2.36553802
H   -2.40301252  -3.32487466   2.76154764
H   -1.33651719  -2.78858549   1.83048543
O    0.11045013  -2.96041419   0.74813277
H    0.24215062  -3.74472850   0.21546225
H   -0.09560337  -2.27238373   0.11537066
O    1.98713403   0.92597562   0.46615577
H    2.43010115   0.86457000  -0.38015465
H    2.25566055   0.13610814   0.93544750
O    0.56348846  -0.02021967  -3.27891286
H    0.42807153   0.92729104  -3.26807111
H    0.28372461  -0.29264468  -4.15284000
O   -0.06079325   0.74434568   2.05743418
H   -0.97807708   0.55250550   2.25242023
H    0.42018616  -0.00832738   2.40148931
O    0.87927801   2.67798115  -2.56810485
H    1.77601139   2.36236955  -2.45634438
H    0.97620110   3.53208461  -2.98922840
O    2.94688604   0.84347754  -2.09949867
H    2.33991466   0.29220258  -2.59337467
H    3.80886316   0.63255652  -2.45830172
O   -0.41648514  -0.79166741  -0.81102789
H   -0.10967443  -0.62970251  -1.70314134
H   -1.27980219  -0.37976400  -0.77565712
O   -0.22930031   2.21200629  -0.10565595
H    0.09461944   2.48959632  -0.96254078
H   -1.13238386   1.93903244  -0.26738791
H    0.55177110   1.31318549   0.78466800
