37
Energy:  -1025.23441946
O    0.57783573  -0.21322271  -3.52656008
H    1.34978472  -0.66184748  -3.18150585
H    0.63213406  -0.33662648  -4.47421775
O    2.85298279   0.61187790  -0.19367477
H    3.60861083   0.64974572   0.39269042
H    2.17207053   0.17754354   0.32008004
O   -2.87687922  -1.30571851   1.82695440
H   -2.21960774  -1.06389768   2.47944865
H   -3.55982937  -1.75148819   2.32805352
O   -0.78309473  -0.14925964   3.24436437
H   -0.71484200   0.77369650   2.99997662
H   -0.51817010  -0.17427809   4.16383208
O   -1.84687392  -1.20641833  -0.79292213
H   -1.10021988  -1.78384467  -0.95203976
H   -2.27586492  -1.57597853  -0.02115544
O   -0.77410449   1.05174212  -1.58803988
H   -0.14172083   1.67859554  -1.23678848
H   -0.33220789   0.66226387  -2.34253702
O    0.48562432  -2.68267682  -0.79189535
H    0.54799044  -3.63512525  -0.86389748
H    1.22344278  -2.35433434  -1.30575037
O   -2.43371587   1.01502507   0.42288730
H   -2.84533873   0.38828076   1.01785791
H   -1.94186723   1.60284611   0.99628349
O    0.99622933   2.64323447  -0.21719867
H    1.74193938   2.04362641  -0.24206907
H    1.32683433   3.45358387  -0.60484030
O    2.59573027  -1.40482239  -2.07504455
H    3.44390111  -1.71007705  -2.39700366
H    2.80822359  -0.67363201  -1.49501087
O    0.71617536  -0.54571656   0.96000268
H    0.28543780  -0.59578945   1.81334300
H    0.62184678  -1.42415173   0.59164741
O   -0.67112599   2.37249182   2.01566494
H   -0.00194864   2.52051685   1.34744184
H   -0.82340745   3.23655144   2.39834388
H   -1.68285829   0.29940101  -0.70617505
