37
Energy:  -1025.97963604
O   -2.09789569   2.00474100   1.25106269
H   -2.68759451   2.24077784   1.96714492
H   -1.23218314   1.96217751   1.65721780
O    1.44321150   0.76584932  -0.42258366
H    1.09852574   1.23191504   0.33912909
H    2.06509996   0.13635640  -0.05758332
O    1.20349160  -0.82288810   2.90223074
H    1.90567403  -1.00608519   2.27804285
H    1.56684391  -1.07183424   3.75207353
O    2.86891137  -1.27791178   0.75114913
H    3.79706159  -1.48022820   0.63351799
H    2.40967487  -1.99762072   0.31830651
O   -0.74798584  -2.15865436   1.46045590
H   -0.15913224  -1.72254249   2.07632092
H   -1.35556854  -2.64810935   2.01499077
O    0.52083405   1.70024593   2.02047268
H    1.03155293   2.36764985   2.47869761
H    0.73895434   0.88233774   2.46733014
O    1.06233567  -2.96958503  -0.45008301
H    1.04023176  -3.90582486  -0.64806851
H    0.36318070  -2.84336945   0.19138703
O   -1.89142539  -0.46817061  -3.05866330
H   -2.09214634  -0.45137327  -2.12289581
H   -2.72482130  -0.68009414  -3.47910537
O   -1.13574791   3.43251776  -0.90143282
H   -1.60486905   3.07053851  -0.14968271
H   -1.46617227   4.32722297  -0.98239069
O    0.72723251  -0.94539421  -2.27456883
H   -0.08203863  -1.10126135  -2.76141326
H    0.83784989  -1.72879154  -1.73578848
O   -0.03343105   1.53697453  -2.45203631
H   -0.39042403   2.28913986  -1.97977031
H   -0.77993337   1.17884648  -2.93235958
O   -1.62278970  -0.21717413  -0.32705954
H   -1.93250461   0.51912138   0.20036575
H   -1.42560966  -0.90311710   0.31077597
H    0.69888015   0.49249223  -1.70952220
