37
Energy:  -1026.61194304
O   -2.13374136   0.66544890  -2.09989869
H   -3.00303502   0.96989859  -2.36041886
H   -1.53415970   1.32603730  -2.44682325
O    0.99265391   2.32938497   0.93723411
H    1.15056524   3.27318878   0.91420758
H    0.95188151   2.11555465   1.86935323
O    1.48798928  -1.07702506   1.91487940
H    0.89389845  -1.74949597   2.24815228
H    1.36017564  -0.33168313   2.50170213
O   -0.69711866  -2.72392979   2.15590355
H   -0.98276312  -3.49357215   2.64813289
H   -1.22310232  -2.00552238   2.50727776
O    0.58768193  -2.10644017  -0.29470725
H    0.12160483  -2.00052474  -1.12403584
H   -0.03802914  -2.55108146   0.27714205
O    1.98875608   0.11062071  -0.36348664
H    1.96106126   0.18986346  -1.31699879
H    1.81620623   0.99626139  -0.04395731
O   -1.04407229   0.52150263   0.42550189
H   -0.49904637   1.30703107   0.47158512
H   -1.50870818   0.60032460  -0.40764421
O   -1.73994644  -0.27109704   2.92032360
H   -1.65305718   0.03252025   2.01672046
H   -2.63227127  -0.03054476   3.16956814
O    1.60028792   0.14582740  -3.07071310
H    2.23143136  -0.12507136  -3.73742419
H    0.90220039  -0.50709267  -3.12171327
O   -0.58122700  -1.51317655  -2.70742567
H   -1.23195551  -0.82841032  -2.55289585
H   -1.01345550  -2.12488722  -3.30342939
O    0.64771992   1.07516724   3.39765920
H    0.85888478   1.28224384   4.30802205
H   -0.23279802   0.70159049   3.43454305
O   -0.15852407   2.28474651  -2.98441317
H    0.04965903   3.03250968  -3.54453985
H    0.56767214   1.67555329  -3.11765931
H    1.37354890  -1.00448221   0.39955762
