37
Energy:  -1024.58318230
O   -1.36853809   1.62430222  -1.93319117
H   -1.84813795   2.11677193  -2.59929132
H   -1.72417744   0.73731613  -1.98803795
O    3.39812198  -0.68995457   1.35128092
H    4.18491801  -0.77402109   1.88990571
H    2.92314051  -1.50920444   1.49075888
O   -2.55864433  -0.71659903   1.33357156
H   -2.50499372  -0.94431193   0.40540116
H   -3.49211064  -0.76668643   1.53939612
O   -0.38777942  -1.23985251   2.96790327
H   -0.66435964  -1.29291906   3.88273613
H   -1.20522468  -1.18647312   2.47276114
O    1.52385020  -2.70924434   1.61008841
H    1.53996087  -3.64834713   1.79463719
H    0.84982052  -2.36144755   2.19400042
O    1.04808920   1.82575082  -0.58229750
H    0.42706342   1.89984697  -1.30691367
H    1.76796138   1.30312708  -0.93568160
O   -2.04636754  -1.03785898  -1.35740426
H   -1.12566665  -1.23848700  -1.18920758
H   -2.32595337  -1.70313284  -1.98627172
O   -1.15152165   1.56687049   0.77692783
H   -1.72933163   0.86919442   1.08614551
H   -1.47664927   1.77744663  -0.09839015
O    0.53450533  -1.32638269  -0.58333342
H    1.32784135  -1.03069915  -1.02989926
H    0.84838028  -1.93408536   0.08630217
O    2.90608772  -0.05298086  -1.29190293
H    3.62600009  -0.08855099  -1.92173846
H    3.30859278  -0.28197260  -0.45417725
O    1.10992194   0.76944129   1.81769003
H    1.98333188   0.38841275   1.72711308
H    0.62973170   0.14291267   2.35908736
O   -2.76148234   3.00286508  -3.83199901
H   -2.52335667   3.10779328  -4.75314943
H   -3.50151242   3.59681697  -3.70626721
H    0.36550351   1.40928155   0.69034988
