37
Energy:  -1027.28671132
O   -3.19981693   0.69977233  -0.77702722
H   -2.79816654   1.13173175  -1.53089715
H   -4.13578120   0.68885319  -0.97723588
O    3.30920126  -1.40830125  -0.67326417
H    2.95336198  -1.53517012   0.20623259
H    4.03595798  -2.02866308  -0.72990085
O   -1.29839595  -0.09410970   3.38323867
H   -1.15208474  -0.97456915   3.03738318
H   -1.62344473  -0.23643067   4.27223804
O    2.13060501  -1.52530849   1.81073432
H    2.61937342  -1.81540571   2.58091669
H    1.28344070  -1.96472962   1.88458248
O   -0.50696128  -2.32884237   1.92619736
H   -0.86009314  -3.21686298   1.87189129
H   -0.70981221  -1.93753190   1.07651538
O    0.31705699   1.96521819  -0.50004465
H   -0.29763724   2.08256314  -1.22434640
H    1.12009267   1.65075500  -0.91534989
O   -0.96573587  -0.90782443  -0.35354945
H   -0.55385832  -0.92597185  -1.21741252
H   -1.84656113  -0.56958157  -0.51470303
O   -1.62101433   1.65773176   1.24025065
H   -1.83915905   1.17620675   2.03823461
H   -2.31467592   1.42577649   0.62278631
O    0.12126676  -0.47836272  -2.89450299
H    0.30621880  -1.13483401  -3.56612047
H    0.97741512  -0.10956058  -2.67718566
O    2.35581587   0.78543986  -1.90421126
H    2.76678017   0.03334193  -1.47796145
H    3.08164195   1.25372544  -2.31666363
O    0.78228215   0.87640885   1.84887082
H    1.40512820   0.15678238   1.74673169
H    0.27242439   0.64417960   2.62498066
O   -1.45012591   1.76960361  -2.61307062
H   -0.97570387   0.99498627  -2.91493742
H   -1.53750549   2.31679871  -3.39356673
H   -0.15502161   1.50012573   0.82414718
