37
Energy:  -1025.09383348
O   -2.91915021   3.04482572  -1.23436984
H   -3.86678608   2.96829155  -1.34554817
H   -2.75966333   3.98684199  -1.17605056
O    3.02607390  -0.62760807   0.72467688
H    2.66384496  -1.30591002   0.15465187
H    3.65397474  -1.09045347   1.27942594
O   -2.60485777  -1.04846649   0.64301363
H   -2.08856065  -1.35046805   1.39031825
H   -3.41665470  -1.55321304   0.69249603
O   -0.76432496  -1.53508656   2.61667384
H   -0.86433869  -1.69964111   3.55430431
H   -0.26922723  -2.28741104   2.29245485
O    0.66641103  -3.52623502   1.49006805
H    0.85205550  -4.46288544   1.55680611
H    1.03489194  -3.26814982   0.64517415
O    0.58260494   2.15862394  -0.53498781
H    0.21079489   2.03900569  -1.40887602
H    1.52874426   2.09667579  -0.66619248
O    1.64376582  -2.41009221  -0.83457916
H    1.88054305  -2.80747200  -1.67258733
H    0.89683342  -1.84725772  -1.03839565
O   -1.62689491   1.50645163   0.68842254
H   -2.13440883   0.69613846   0.73374390
H   -2.14283575   2.08147620   0.12328217
O   -0.48055077  -0.71894624  -1.13599455
H   -1.29496178  -0.97839318  -0.70511888
H   -0.75508044  -0.10917058  -1.82085873
O    3.21313317   1.68381273  -0.77449180
H    3.36522882   0.87452030  -0.28649126
H    4.08564488   2.05807578  -0.89648499
O    0.66633790   0.52934944   1.51518686
H    0.21524993  -0.15435307   2.01046694
H    1.53005471   0.16093537   1.32945534
O   -1.04943980   1.54859231  -2.67572219
H   -1.01397056   1.71053415  -3.61845684
H   -1.78434371   2.07941600  -2.36851820
H   -0.08229585   1.38424925   0.54898251
