37
Energy:  -1024.37225781
O   -3.23459948  -0.19866125  -1.33253741
H   -2.90478439   0.55840619  -1.81658569
H   -4.02420253  -0.46075226  -1.80589475
O    3.01934607  -0.92367802   0.45947361
H    2.35651855  -1.61398565   0.47862843
H    3.84736708  -1.38923197   0.34169175
O   -0.29452008   0.61528436   2.43334615
H    0.63825763   0.81622348   2.50937947
H   -0.35955637  -0.31216898   2.66101355
O   -0.47415985  -2.04755325   2.68631600
H   -0.51986363  -2.74472954   3.34060052
H    0.03318741  -2.42546499   1.96797533
O    0.96045568  -2.74888697   0.43717973
H    0.96956250  -3.64212617   0.09327182
H    0.36430264  -2.27464349  -0.14241195
O   -0.45548868   1.81326783   0.12268140
H   -0.94195296   1.98500778  -0.68360003
H    0.44566544   1.67018323  -0.16659337
O   -0.63483979  -1.19593203  -1.10729759
H   -0.25209652  -0.74917827  -1.86238071
H   -1.57941953  -1.08690542  -1.21736195
O   -2.57468009   0.67143590   1.16289114
H   -3.20546489   0.42127683   1.83799323
H   -2.94777532   0.33343530   0.34877358
O    0.45761119   0.45991735  -3.05658149
H    0.92831299   0.25733394  -3.86505637
H    1.13628939   0.76224199  -2.45306880
O    2.02829678   1.24615123  -0.94022699
H    2.66520550   1.94928134  -0.81299812
H    2.41366147   0.49021053  -0.49719251
O    2.36798133   0.99079486   2.35116729
H    2.73342907   0.28283582   1.82062625
H    3.03524293   1.16158949   3.01586496
O   -1.75403059   1.91449602  -2.31207570
H   -1.02400125   1.48198277  -2.75504444
H   -1.94808702   2.67674260  -2.85756089
H   -1.07132260   1.04905067   1.26537182
