37
Energy:  -1025.68981602
O   -2.94296424   1.68466261   0.27056411
H   -3.77653735   2.04658553   0.57122923
H   -3.10985290   0.74726669   0.17223351
O    3.06090121  -1.23507036  -0.34771912
H    2.33756582  -1.78669534  -0.64559100
H    3.78043348  -1.84664173  -0.19124028
O   -3.19692781  -1.00995191   0.10855788
H   -2.53126226  -1.65608617   0.34442173
H   -3.94649171  -1.53145139  -0.17853810
O   -0.24521119  -1.11247943   2.81472893
H   -0.59929871  -1.76289343   2.20825097
H   -0.37965804  -1.49472613   3.68193326
O   -1.16464221  -2.77036399   0.82359009
H   -0.51346981  -2.71787821   0.12398191
H   -1.33161717  -3.70728190   0.92623526
O    1.10045680   2.43828544   0.05226752
H    0.38467930   2.68239119  -0.53450910
H    1.81752248   2.19366590  -0.53271960
O    0.70294101  -2.43822022  -1.16458787
H    0.44760165  -1.57225405  -1.48260713
H    0.67379855  -2.99723252  -1.94104637
O   -0.64435217   1.39825027   1.70403173
H   -0.78962163   0.61879998   2.24030207
H   -1.49240845   1.56917380   1.29437633
O    0.28481430   0.13185670  -1.87561853
H    1.14142568   0.51971472  -2.05454573
H   -0.33175531   0.85797061  -1.96959912
O    2.84634245   1.19615357  -1.68246756
H    3.15874962   0.36934218  -1.31502159
H    3.56464962   1.49838845  -2.23827395
O    1.70076119   0.31019588   1.46175551
H    1.28300479  -0.31879732   2.05004030
H    2.26630616  -0.22284423   0.90295415
O   -1.11171639   2.53464964  -1.58696255
H   -1.44143970   3.16845489  -2.22399104
H   -1.87223418   2.31912000  -1.04715563
H    0.74034045   1.44385594   1.06601632
