37
Energy:  -1025.67822788
O    1.35328667   0.21443354   0.67170990
H    0.91878327   1.01981024   0.95243578
H    1.17563096  -0.41138607   1.37386380
O    3.17569890   0.01780767  -1.31433135
H    2.63857070   0.11800500  -0.52840155
H    4.04917526   0.30288596  -1.04600083
O    1.28658679   1.36771764  -2.82464287
H    1.63880836   1.70885818  -3.64671035
H    2.05138562   1.03282740  -2.35649425
O   -0.90971205   2.26716038  -1.39026065
H   -1.43964567   2.86387474  -1.91878139
H   -0.12306081   2.11655929  -1.91440852
O   -0.25735125   2.37746688   1.30070138
H   -0.09402064   3.24957803   1.65983520
H   -0.51480883   2.53625597   0.39255301
O   -1.60612299  -0.27511094  -0.57493405
H   -1.52878033   0.62147698  -0.90109361
H   -1.81124506  -0.17544566   0.35470223
O   -4.06222284   0.64436926   3.51661977
H   -4.15490804   0.92872864   4.42589478
H   -4.95406060   0.43623118   3.23816727
O    2.24177940  -2.57355943  -1.72613144
H    2.86105700  -3.22509886  -2.05510480
H    2.77003658  -1.78670971  -1.59180452
O    0.21113943  -1.67131953   2.37294805
H   -0.54096186  -1.09187593   2.49468796
H    0.31314144  -2.11254092   3.21624582
O   -0.13863169  -2.42391342  -0.23020085
H   -0.04206710  -2.33390216   0.71785247
H    0.69946959  -2.78101429  -0.52396446
O   -1.77666479   0.18358409   2.10270816
H   -1.36760396   1.04636616   2.03556507
H   -2.57903734   0.33658809   2.60172712
O    0.06621956  -1.05180338  -2.42794928
H    0.40795306  -0.20668441  -2.71988075
H    0.80651257  -1.65252987  -2.51354017
H   -0.60593492  -1.25613703  -1.05759611
