37
Energy:  -1024.17764627
O   -3.31241496   0.73106598  -0.35309818
H   -3.50186553   0.02747675   0.26762924
H   -4.17321055   1.04637559  -0.62849365
O   -0.67905330  -1.06147413   2.08769614
H   -0.53029016  -1.63910900   1.33907117
H    0.17116138  -1.01095935   2.52452002
O   -3.43515337  -1.17419343   1.58147740
H   -2.57506193  -1.25824466   1.99307181
H   -4.03679847  -1.59698465   2.19426007
O    2.08867863  -0.63646708   2.35358759
H    2.74732664  -0.71722127   3.04343787
H    2.41159022  -1.19546892   1.64685080
O    2.60358691  -1.95218441  -0.05236185
H    1.69525369  -2.23910349  -0.14638343
H    3.12088600  -2.74736504  -0.18011658
O   -0.25485220   2.85420861  -0.81467602
H   -0.49596138   3.77246942  -0.93672231
H    0.02377874   2.56186162  -1.68250659
O   -0.07879649  -2.46510281  -0.20038070
H   -0.39412804  -1.71882792  -0.71015678
H   -0.61462812  -3.20117582  -0.49586816
O   -1.18775296   1.47812116   1.22022984
H   -1.06714164   0.63030886   1.64789685
H   -2.02263009   1.39763935   0.75899812
O    0.65021780   1.48265876  -3.01584651
H    1.45387606   1.07042413  -2.69894296
H    0.79139360   1.59222272  -3.95621717
O    2.75844912   0.38241012  -1.54854385
H    2.76634098  -0.49245330  -1.16023528
H    3.67944545   0.57550957  -1.72378716
O    1.33791114   1.31730306   0.59365632
H    1.62068107   0.74249595   1.30490157
H    1.90466971   1.08542831  -0.14204108
O   -0.86624993  -0.14727190  -1.33956814
H   -0.56197151   0.30641348  -2.12558091
H   -1.78074398   0.11990725  -1.24711389
H   -0.05813204   1.84712252   0.36285781
