7
Energy:   -430.75452768
O   -0.34558429   0.78015479  -1.66598328
H   -0.49797669   1.69580270  -1.43232263
H    0.49913055   0.78474516  -2.11616946
O    0.18819891  -0.90433637   1.49286787
H    0.72746771  -1.68863184   1.59436478
H    0.41695921  -0.35693991   2.24403875
Ca  -1.01775263  -0.27408861  -0.02511451
