7
Energy:   -428.20294203
O   -1.44487870   0.83129024  -0.07490093
H   -1.36047152   0.13276688   0.57407703
H   -2.04684817   1.45894220   0.32499608
O    1.41475257  -0.76917664  -0.16849107
H    1.36516365  -1.66998073   0.15139137
H    2.00846095  -0.33047134   0.44083631
Ca   0.09054771   0.35274239  -1.25773550
