7
Energy:   -438.51294428
O    0.84570782  -0.61328098  -1.07777964
H    0.09773210  -1.09795278  -1.42686044
H    1.60569727  -1.14972154  -1.30334428
O   -0.77417061   0.82629235   1.16391650
H   -1.59194040   0.59925084   0.72126926
H   -0.78766781   0.31243106   1.97137935
Ca   0.63797871   1.13552886  -0.10785686
