7
Energy:   -434.83097705
O    0.11132156   1.53559738  -0.66109806
H    0.69835469   1.78482549  -1.37489727
H    0.26308809   2.19513046   0.01581767
O   -0.30864173  -1.67436098   0.58332434
H   -0.17226624  -1.28651992   1.44773911
H    0.40163322  -2.30926546   0.49038537
Ca  -0.99912615  -0.19134867  -0.51753413
