7
Energy:   -440.11254854
O   -0.65228190  -0.35463098  -1.87908071
H   -0.05916612   0.12674844  -2.45589903
H   -1.28875761  -0.75630679  -2.47050870
O    0.51749487   0.38653942   1.88586318
H    0.41743211  -0.00495535   2.75359075
H    1.07997182   1.14762798   2.02937531
Ca   0.06644986  -0.63444666   0.14997549
