7
Energy:   -447.15525114
O   -1.00349409  -0.35086202  -0.93341481
H   -1.11805385  -1.27524227  -1.15393479
H   -1.89282384   0.00241207  -0.91057072
O    1.04881887   0.36526788   0.92060261
H    0.57626946  -0.09520795   1.61406560
H    1.59336128   1.00213978   1.38331159
Ca   0.86989139   0.38761430  -1.02994637
