7
Energy:   -438.23666029
O   -1.48865719   0.66910461  -0.27384057
H   -2.21812448   0.98024957   0.26216142
H   -1.86350643  -0.03381692  -0.80452054
O    1.54896454  -0.58483750   0.20855025
H    1.37969025  -1.17376876   0.94389917
H    2.16368305  -1.06461233  -0.34657957
Ca   0.50198650   1.31037361   0.05186866
