7
Energy:   -449.03181148
O    0.87357085  -0.76263594   1.20168180
H    0.76761010  -0.40521667   2.08330283
H    1.82044943  -0.78223251   1.06286978
O   -0.97007201   0.69920693  -1.16762156
H   -1.65909335   1.06534791  -1.72207825
H   -0.17821093   1.17090259  -1.42586773
Ca  -0.67856528  -1.07244189  -0.05739985
