7
Energy:   -453.95044939
O   -0.10823979  -1.20455886  -1.26839418
H   -0.49472212  -1.65252427  -2.02085033
H    0.80929053  -1.07778842  -1.50984649
O   -0.02638801   1.15376390   1.30960752
H   -0.06138880   2.06590882   1.02151301
H    0.67385898   1.13482453   1.96193205
Ca  -0.81092309  -0.44205500   0.54543152
