7
Energy:   -429.65726348
O   -0.94504624  -0.44125167  -1.38350926
H   -0.88039280  -1.18705221  -1.98002694
H   -1.83975797  -0.48102427  -1.04566179
O    0.90702154   0.42778406   1.35813419
H    0.68598520   0.01892643   2.19491984
H    1.59810082   1.05447835   1.57236663
Ca   0.55820046   0.69428405  -0.79227770
