7
Energy:   -429.51269107
O    1.17013022  -0.56091603   0.80993928
H    0.67216905  -0.09293332   1.48020692
H    1.94560765  -0.88386051   1.26882214
O   -1.14181774   0.54330106  -0.94141475
H   -1.82511857   0.83189056  -1.54643370
H   -1.34165523   0.99410734  -0.12100600
Ca   0.56989905  -0.92719235  -0.99075580
