7
Energy:   -433.96963228
O    0.89119992  -0.62293439   1.38330433
H    0.29215996  -0.10802582   1.92390784
H    0.87275841  -1.49780692   1.77123449
O   -0.72694196   0.55517943  -1.42866289
H   -1.39303046   0.94879353  -0.86507981
H   -1.07505340   0.65167504  -2.31508202
Ca   1.18352447   0.12421386  -0.50179998
