7
Energy:   -433.92173431
O   -0.74593981   1.73237872   0.89618865
H   -1.45500721   2.36122161   1.03039701
H   -0.26577715   1.73177445   1.72424379
O    0.75624410  -1.64640184  -1.07234875
H    1.45640487  -2.07270363  -0.57810839
H    0.38057210  -2.34528644  -1.60775768
Ca  -0.14903712   0.21665556  -0.33436579
