7
Energy:   -433.51727588
O   -1.07043188   0.68724888  -1.12188356
H   -1.54247201  -0.02056298  -1.56053185
H   -0.55227736   1.09592105  -1.81523397
O    0.90732996  -0.65680403   1.27245026
H    1.44352963  -0.74095059   0.48400805
H    1.43758400  -1.04884313   1.96625703
Ca  -0.60258255   0.75279694   0.78139131
