7
Energy:   -428.05060223
O    1.39490130  -0.09190418  -1.41049784
H    1.80879667  -0.83473642  -1.84995516
H    2.12662734   0.43552731  -1.09014668
O   -1.63653802   0.10243936   1.20206807
H   -1.69910633  -0.64642382   1.79496014
H   -1.53404381   0.85837944   1.78023879
Ca  -0.37076480   0.19285110  -0.35290070
