7
Energy:   -428.36630982
O    1.33378131  -0.98722459   0.45093375
H    2.01452892  -1.48120289   0.90788011
H    1.50825235  -1.14070944  -0.47763187
O   -1.33996794   1.00388634  -0.37471418
H   -0.67573197   1.66924786  -0.55448195
H   -2.17307961   1.46774052  -0.45835685
Ca  -0.74945661  -0.61006968   0.52424410
