7
Energy:   -126.36366690
O    0.46975284   1.48067253   0.36294369
H   -0.21696026   0.87375378   0.08670720
H    1.25550908   0.93846669   0.43245495
C   -0.67100093  -1.39320993  -0.48173170
O    0.58634257  -1.25789864  -1.00873888
O   -1.32906804  -0.19389648  -0.55718832
O   -0.57700683  -1.78145868   0.82907271
