7
Energy:   -133.10754367
O    1.53411074   0.00842326   0.02383578
H    1.20798643  -0.79402843  -0.38352900
H    0.75221378   0.54370194   0.15928216
C   -1.52978967   0.16687332  -0.05865006
O   -1.66746017  -0.49539560   1.13273782
O   -0.95937944  -0.66897605  -0.98227704
O   -0.72995232   1.26517966   0.11957340
