7
Energy:   -125.84647046
O    0.20232172  -0.82758380  -1.18026925
H   -0.55361388  -0.64022736  -0.62377057
H    0.92301514  -0.34361860  -0.77701930
C   -0.19753872   0.79075867   1.21636668
O   -0.75350804   1.62439229   0.28206935
O    1.09764451   0.51257185   0.86677941
O   -0.91613101  -0.37464650   1.27325353
