7
Energy:   -125.70087750
O    1.03641963   0.98196002  -0.73703307
H    0.16129764   0.96601080  -0.34955536
H    1.33243741   0.07248744  -0.69875852
C   -1.17712860  -0.84771554   0.71124616
O   -0.71502560  -1.53323016  -0.38122301
O   -1.31395019   0.47805577   0.39389927
O   -0.28633759  -0.98106319   1.74395618
