7
Energy:   -126.80827342
O   -0.84712806   1.31842330   0.17186242
H   -0.34151906   1.32849544  -0.64084291
H   -0.55567897   0.52784608   0.62603962
C    0.85369336  -1.33430345   0.01962429
O    1.46268545  -0.35891164  -0.72515611
O   -0.13475233  -1.92511174  -0.72268256
O    0.30779462  -0.77494723   1.14518876
