7
Energy:   -126.96730279
O    0.99594035  -1.17167468   0.37618260
H    0.72468854  -0.27839780   0.58763173
H    0.35858083  -1.46863717  -0.27329254
C   -0.97014948   1.24763771  -0.18428470
O   -1.58580231   0.02374626  -0.17984703
O   -0.41603273   1.47540152  -1.41642798
O    0.01314765   1.26726340   0.76992794
