7
Energy:   -123.82908951
O   -1.13407966   0.77811615   0.56536162
H   -0.26709190   1.09050694   0.30656430
H   -1.14976111  -0.13937329   0.29296655
C    1.17354575  -0.73387171  -0.56807004
O    0.05558954  -1.16884944  -1.22983032
O    1.12993434  -1.16264487   0.73244924
O    1.21696521   0.63546000  -0.59680393
