7
Energy:   -124.41475908
O    0.79312941  -1.11530152   0.48955334
H    0.84516834  -0.62198077  -0.32907871
H    0.06665526  -0.71356342   0.96607580
C   -0.78450223   1.14592672  -0.45865391
O   -1.09005431   0.18234719  -1.38337591
O    0.55284279   1.43580205  -0.52632494
O   -1.09003283   0.68749293   0.79604515
