7
Energy:   -128.75645974
O    0.70411328   0.81549450   1.08697021
H    1.37093087   0.47505272   0.49057643
H   -0.12306688   0.48670349   0.73497403
C   -0.89438043  -0.71042799  -1.05387268
O    0.06059768   0.08564469  -1.62941023
O   -1.49461493  -0.03255190  -0.02562109
O   -0.30716453  -1.84974014  -0.56918153
