7
Energy:   -125.98245204
O   -0.07424033   1.57573141  -0.27362269
H    0.34537475   0.86010921   0.20391255
H   -0.59215798   1.14096536  -0.95109715
C    0.28521663  -1.54066945   0.32172391
O   -0.07111250  -1.18860331  -0.95343779
O   -0.84335227  -1.73665160   1.07340338
O    1.03709594  -0.53934946   0.87833509
