7
Energy:   -126.89091880
O    0.77223582   1.19818484  -0.60095350
H    0.82763215   0.43198788  -0.02989718
H   -0.10124185   1.14569321  -0.98891387
C   -0.59051570  -1.30599139   0.56581531
O   -1.05486815  -0.83485857  -0.63392176
O   -1.26827247  -0.69655305   1.58871777
O    0.74751868  -1.03184574   0.67666824
