7
Energy:   -127.47255085
O   -1.42072298   0.37586484  -0.51121926
H   -0.54318022   0.65765103  -0.25286466
H   -1.45131789  -0.55324479  -0.28307217
C    1.43678918  -0.16260465   0.60085788
O    0.47057801  -0.99074911   1.10837251
O    0.89586626   1.07141017   0.35244571
O    1.92429109  -0.69132713  -0.56557884
