7
Energy:   -128.40300887
O   -1.00061106  -1.17411565   0.01240549
H   -0.17425096  -0.86597318  -0.35962818
H   -1.25045501  -0.49416765   0.63808957
C    1.11929334   1.08835372  -0.11654112
O    0.78500707   0.98782216   1.20826244
O    0.08630221   1.66772542  -0.80527658
O    1.36152444  -0.16201667  -0.62218744
