7
Energy:   -126.74756305
O   -0.50331997  -1.48475284   0.22689273
H   -0.56368307  -0.56409742   0.48180791
H    0.22875194  -1.51573218  -0.38901541
C    0.44358267   1.52905660  -0.00926370
O    1.44029339   0.59263747  -0.09078273
O   -0.52741583   1.08847668   0.85105602
O   -0.10087599   1.72527526  -1.25137610
