31
Energy:   -380.76486846
Na  -0.03238755   0.14239687  -0.27301205
C   -1.25106152   4.52783665   2.00641697
H   -1.45882882   4.38274492   3.04597521
H   -2.15976824   4.75576120   1.48950152
H   -0.56175362   5.33791819   1.89013453
C   -0.63626052   3.24270514   1.42156080
N   -0.17851323   2.28586631   0.98610880
C   -4.94412423  -0.77979134   0.23908955
H   -5.34099704  -1.07209336  -0.71062182
H   -5.60479173  -0.07574699   0.70032602
H   -4.84740915  -1.64165283   0.86577932
C   -3.56125168  -0.13195511   0.04016309
N   -2.53164021   0.35038841  -0.10794670
C    3.85259643  -1.39733659   2.85714926
H    4.71954609  -1.38393018   2.23015744
H    3.67469192  -2.39570441   3.19848601
H    4.01100859  -0.75562587   3.69858377
C    2.63288923  -0.90331131   2.05724090
N    1.72476179  -0.53548704   1.46167276
C    0.75737963  -4.74932255  -0.11171662
H    1.76863419  -4.91570716  -0.41925613
H    0.12900852  -5.51021499  -0.52534875
H    0.69963075  -4.78064164   0.95626432
C    0.28942805  -3.36965825  -0.61086363
N   -0.05898317  -2.34243547  -0.98250126
C    1.57029543   2.15100712  -4.71352542
H    1.70049485   1.35135869  -5.41246081
H    2.45198107   2.75701263  -4.69658860
H    0.73249834   2.74838042  -5.00702205
C    1.31973845   1.56993615  -3.30953905
N    1.13318738   1.13730239  -2.26420738
