31
Energy:   -383.68903509
Na  -0.00522404  -0.03429361  -0.37652183
C    2.94553923   4.23561561   0.27107508
H    3.44813140   4.43503729  -0.65225167
H    3.66627683   4.14055826   1.05618686
H    2.27818900   5.04141888   0.49518185
C    2.14534290   2.92565230   0.14745486
N    1.54956036   1.95032507   0.05541398
C    2.25973423  -4.75961994  -0.19881888
H    2.82058672  -4.88107387   0.70428333
H    2.88432289  -4.98066133  -1.03901458
H    1.42285160  -5.42630615  -0.19133146
C    1.75806962  -3.30715034  -0.30013371
N    1.38455751  -2.22572071  -0.37556721
C   -4.75692689  -1.95742339  -0.35155370
H   -5.18520947  -1.89892036   0.62724740
H   -4.79935915  -2.96834599  -0.69959693
H   -5.30595310  -1.32695220  -1.01936760
C   -3.28925946  -1.49405756  -0.29822064
N   -2.19651434  -1.14906064  -0.25851176
C   -0.26150945  -0.81782475   4.53489627
H    0.68707759  -0.83715923   5.02957696
H   -0.72902995  -1.77628992   4.62246452
H   -0.88442270  -0.07450740   4.98695544
C   -0.05735588  -0.48034493   3.04626311
N    0.09464574  -0.22907586   1.93790805
C   -0.22793978   3.41902533  -3.90722475
H   -0.60559140   4.26628113  -3.37389834
H   -0.72901473   3.33818307  -4.84918415
H    0.82246989   3.54002932  -4.07122669
C   -0.47503557   2.14180519  -3.08305705
N   -0.65900962   1.19085675  -2.46942674
