31
Energy:   -383.55156428
Na   0.38338361   0.29997688   0.43548360
C   -0.71442699   5.12257274   1.49996045
H   -0.42694344   5.30807815   2.51378545
H   -1.78079102   5.15826405   1.41938150
H   -0.28360100   5.86823904   0.86492516
C   -0.21348778   3.73101026   1.07075912
N    0.15948422   2.69492874   0.75119922
C    2.43854003  -1.91190992  -3.67819375
H    3.31435950  -2.52333015  -3.74148465
H    2.54914468  -1.06287241  -4.31991099
H    1.58427109  -2.47994116  -3.98227299
C    2.24833502  -1.43635998  -2.22585966
N    2.10671875  -1.08229143  -1.14453092
C   -2.26927211   0.68935602  -3.90365957
H   -3.31882079   0.56517926  -3.73654320
H   -1.94733185   0.01315441  -4.66786173
H   -2.07373507   1.69516918  -4.21188716
C   -1.50348569   0.39368297  -2.60068275
N   -0.93332289   0.17354095  -1.63055727
C   -3.67758870  -1.54511610   2.64493267
H   -3.55891985  -2.60804991   2.61347495
H   -4.51119823  -1.26115757   2.03718124
H   -3.85019956  -1.23522443   3.65442350
C   -2.40017567  -0.86998514   2.11200288
N   -1.44908361  -0.36731946   1.71521242
C    3.66659167  -2.59377217   2.95423936
H    3.09500616  -3.22403099   3.60305675
H    4.45701248  -2.13350409   3.50947566
H    4.08210849  -3.18071759   2.16193896
C    2.75359722  -1.50434798   2.36162139
N    2.07383134  -0.69322215   1.92039038
