31
Energy:   -385.45514734
Na  -0.00270421   0.08878552  -0.11534887
C   -3.88633587  -3.25601826   0.32966784
H   -3.89524940  -3.97350968  -0.46407442
H   -4.80960424  -2.71521402   0.33198763
H   -3.76632597  -3.76082661   1.26543771
C   -2.71741322  -2.27517236   0.12191513
N   -1.84709718  -1.54488801  -0.03276620
C    1.82921444  -3.53801417  -3.28806185
H    2.74275442  -3.93679527  -2.89906505
H    1.96623988  -3.26826026  -4.31439315
H    1.05760050  -4.27550172  -3.21307421
C    1.42773210  -2.29087848  -2.47870130
N    1.12881025  -1.36232928  -1.87609557
C    1.94519302   4.69206184   0.60597154
H    2.98466577   4.94482817   0.62846082
H    1.49139480   4.96572043   1.53552909
H    1.46716600   5.21916147  -0.19312498
C    1.79026082   3.17577137   0.38583703
N    1.67490675   2.04682419   0.22193688
C    3.08458827  -1.96126888   3.37424243
H    4.04354857  -1.58841897   3.08051080
H    3.10172780  -3.03112747   3.37142894
H    2.85173141  -1.61087302   4.35806127
C    2.01487210  -1.46240463   2.38508028
N    1.21841978  -1.09097751   1.64860410
C   -3.08437647   4.06031593  -0.94918579
H   -2.48284658   4.63781699  -1.61967405
H   -3.33507372   4.65305922  -0.09437273
H   -3.98100814   3.75531997  -1.44710967
C   -2.29883246   2.81500286  -0.49783676
N   -1.71395923   1.88781066  -0.16178690
