31
Energy:   -389.84583251
Na  -0.27700171  -0.03876911   0.01212454
C    0.97763366  -4.65971167  -1.67955627
H    0.11898795  -5.28822528  -1.79179882
H    1.55483334  -4.99070091  -0.84159103
H    1.57469859  -4.70987639  -2.56606406
C    0.52337756  -3.20654256  -1.44814551
N    0.18516325  -2.12459211  -1.27584968
C    2.48800532   2.26181323  -3.51120783
H    3.54584797   2.26152762  -3.35036933
H    2.14780908   3.26746819  -3.64471330
H    2.26006404   1.68910819  -4.38582249
C    1.78319473   1.63909894  -2.29175346
N    1.25843121   1.17545984  -1.38381426
C   -0.73356791  -2.32170373   4.46800323
H    0.24324942  -2.05416946   4.81318942
H   -0.86836284  -3.37889854   4.56323221
H   -1.47056279  -1.81392485   5.05443161
C   -0.88472929  -1.91600415   2.99011349
N   -0.99727580  -1.61394236   1.88975740
C   -4.08367838   1.93096105  -2.84719862
H   -4.89914353   1.24340083  -2.93191998
H   -3.69165326   2.14098141  -3.82039277
H   -4.42793168   2.83893316  -2.39778188
C   -2.97877189   1.31145927  -1.97141372
N   -2.15611879   0.85021204  -1.31935205
C    1.69958171   2.93340517   3.59631536
H    0.99554816   3.69281461   3.86563721
H    2.53041442   3.38019808   3.09134785
H    2.04394897   2.43693913   4.47939619
C    1.02145305   1.91191363   2.66449105
N    0.51655544   1.15136675   1.97070549
