31
Energy:   -386.46408869
Na  -0.20674959  -0.10270160   0.13271264
C    0.31595307   4.81971162   1.34128187
H    0.61577380   5.25910439   0.41287371
H    1.07002088   4.99651066   2.07953854
H   -0.60639033   5.25738972   1.66162486
C    0.12662603   3.30292408   1.15390307
N   -0.01433655   2.17360680   1.01439104
C   -5.16453120  -1.12170681   1.00578511
H   -5.39412967  -1.78639706   1.81224131
H   -5.61550053  -1.48394188   0.10561207
H   -5.54495966  -0.14660693   1.22794157
C   -3.63748696  -1.04711680   0.82092776
N   -2.50053312  -0.99158114   0.68329306
C    2.27854300  -1.41688773   4.47377479
H    1.54709393  -1.45682438   5.25370268
H    3.00330911  -0.66376729   4.70273503
H    2.76469239  -2.36653571   4.39175903
C    1.58846854  -1.07655544   3.13976911
N    1.07467674  -0.82316259   2.14654124
C   -1.12814231  -0.31482422  -4.91814314
H   -0.18904732  -0.00865779  -5.32955886
H   -1.92069817   0.21100615  -5.40830305
H   -1.25504468  -1.36729236  -5.06342114
C   -1.15640463   0.00249026  -3.41145381
N   -1.17744722   0.23874531  -2.28965511
C    4.00926706  -1.81662675  -1.99829300
H    4.13094249  -2.87435888  -1.89200093
H    4.71524732  -1.31172829  -1.37253866
H    4.17458008  -1.53931967  -3.01842607
C    2.58013182  -1.42007371  -1.58366285
N    1.51607568  -1.12482194  -1.27495186
