31
Energy:   -400.02916053
Na   0.00046967  -0.00086521  -0.00022836
C   -1.95092105   4.68995771   0.22522136
H   -2.96228159   4.63879913   0.57081193
H   -1.92867129   5.13337629  -0.74832063
H   -1.37264629   5.28451013   0.90124266
C   -1.35962326   3.26968295   0.15603651
N   -0.91937518   2.21222384   0.10452525
C    4.40839746   1.90846712  -1.64075311
H    4.96244725   1.14448350  -2.14499318
H    4.97413282   2.26774278  -0.80662866
H    4.21765381   2.71575457  -2.31662509
C    3.07126984   1.32905258  -1.14278874
N    2.07571755   0.89765212  -0.77203163
C   -0.82540527  -0.57370370   4.97547943
H   -0.40212385   0.25434599   5.50469275
H   -0.36962349  -1.48185796   5.31076721
H   -1.87863561  -0.61400959   5.15981714
C   -0.57473435  -0.40040233   3.46593290
N   -0.38809846  -0.27137158   2.34200690
C   -3.58043863  -1.33000283  -3.34350334
H   -3.72978051  -0.53289302  -4.04150987
H   -4.49606986  -1.52736518  -2.82623488
H   -3.27017103  -2.20968217  -3.86771453
C   -2.49422495  -0.92710950  -2.32890154
N   -1.68548949  -0.62713710  -1.57348439
C    1.94773117  -4.69381213  -0.21591797
H    2.24658944  -4.91059020  -1.22020438
H    1.20828066  -5.40117732   0.09672641
H    2.79785563  -4.75716875   0.43074535
C    1.35830990  -3.27254796  -0.15118214
N    0.91945897  -2.21435219  -0.10298337
