31
Energy:   -383.70225591
Na   0.37162868   0.27820124  -0.23208429
C    1.20271820  -3.21139223  -3.72761861
H    0.51618485  -3.31977588  -4.54114496
H    1.36188228  -4.16347336  -3.26598302
H    2.13379047  -2.83287022  -4.09466710
C    0.62168661  -2.22990267  -2.69288167
N    0.18908218  -1.49913908  -1.92247298
C   -2.51911375   2.82429112   2.95969612
H   -2.44134643   2.44553012   3.95738973
H   -3.42776952   2.47515134   2.51546060
H   -2.52178364   3.89402262   2.98349708
C   -1.31941074   2.33230955   2.12887315
N   -0.42617731   1.96600690   1.51028768
C    2.41017955   4.45759362  -2.15205300
H    1.92230865   5.23495518  -1.60197013
H    2.34214980   4.66517770  -3.19951655
H    3.43958623   4.40901720  -1.86419661
C    1.72868361   3.10991951  -1.85049411
N    1.22127891   2.10651487  -1.62596981
C    3.20672359  -3.09497045   2.36367830
H    3.09043523  -4.02097221   1.84032570
H    2.80503213  -3.19030349   3.35082301
H    4.24593805  -2.84736264   2.42386779
C    2.45653403  -1.98137998   1.60953515
N    1.89798380  -1.15226126   1.04804130
C   -4.59472716  -1.23467629   0.70988647
H   -4.78987970  -2.08456419   0.08980082
H   -5.18584553  -0.40715829   0.37718220
H   -4.84576230  -1.46760959   1.72360365
C   -3.10177920  -0.86722985   0.62219660
N   -1.99021158  -0.59364928   0.55690751
