31
Energy:   -385.16792968
Na   0.10132395   0.26594197   0.36338667
C    3.33020011  -2.48107412  -2.54681796
H    4.04401133  -1.84936140  -3.03293806
H    2.72843758  -2.97176450  -3.28302711
H    3.84365319  -3.21368445  -1.95983659
C    2.42994354  -1.62962816  -1.63239035
N    1.75966160  -0.99568793  -0.95155742
C    3.16503207   4.23178411   1.89636794
H    2.65945333   4.86465844   2.59548196
H    3.47209289   4.80941845   1.04963816
H    4.02486010   3.79926238   2.36382894
C    2.21323814   3.11206252   1.43602907
N    1.50458430   2.27837889   1.09328586
C   -1.38115580   2.58025166  -3.88616855
H   -0.59539666   2.54310041  -4.61149781
H   -1.57245316   3.59865528  -3.61941311
H   -2.26822945   2.14696995  -4.29880204
C   -0.96001271   1.79158211  -2.63227907
N   -0.64645254   1.20438178  -1.69870135
C   -1.86921985  -4.49454689   0.21254078
H   -1.58533988  -5.26877290   0.89436659
H   -1.64591911  -4.80091823  -0.78804528
H   -2.91888314  -4.30737345   0.30238601
C   -1.08844906  -3.20868205   0.54200790
N   -0.50712972  -2.25129722   0.78731114
C   -3.40962899  -0.11227068   3.90862146
H   -2.94733562  -0.40756455   4.82730886
H   -3.95097587  -0.93967590   3.49966760
H   -4.08306601   0.69858572   4.09272354
C   -2.32660324   0.33655049   2.91001504
N   -1.52024133   0.67071825   2.16650718
