31
Energy:   -386.54288067
Na   0.01204345  -0.73880006  -0.32864483
C    3.23924215   2.96942669   1.22829602
H    3.34439018   2.80417886   2.28021675
H    2.81245368   3.93608679   1.06001367
H    4.20056214   2.91776275   0.76129087
C    2.31858016   1.89034765   0.62865453
N    1.63310545   1.08692426   0.18219419
C    4.11912493  -3.56716911  -0.17904258
H    3.78635134  -4.56266496  -0.38676819
H    4.59840319  -3.54358150   0.77732297
H    4.81247303  -3.25821854  -0.93317589
C    2.91036262  -2.61300395  -0.17113621
N    2.01038413  -1.90258461  -0.16524956
C   -2.88433953  -1.83071172   3.55613756
H   -3.24133867  -2.83495920   3.65068270
H   -3.70922873  -1.17490854   3.37072158
H   -2.39391818  -1.53979195   4.46153895
C   -1.88914217  -1.74791925   2.38382035
N   -1.14817251  -1.68627649   1.51097690
C   -1.50845526   4.05524417   0.12538755
H   -1.23778151   4.29288491   1.13294042
H   -2.50841423   4.38624082  -0.06282072
H   -0.83769044   4.54514173  -0.54913008
C   -1.42422944   2.53174243  -0.08305538
N   -1.36151950   1.39742613  -0.23825061
C   -2.95843855  -0.92566985  -4.39295523
H   -2.45600186  -1.02000582  -5.33293304
H   -3.43770626   0.02946837  -4.33898739
H   -3.69256118  -1.69874691  -4.30176907
C   -1.93519491  -1.05192879  -3.24900106
N   -1.17334352  -1.14593431  -2.39727518
