31
Energy:   -384.57975365
Na  -0.27648472   0.57149389   0.03227218
C    0.37606773  -4.50523210   1.05555154
H   -0.60775556  -4.81723872   1.33776384
H    1.03854904  -4.61786435   1.88821688
H    0.72128431  -5.10726356   0.24112982
C    0.34170608  -3.02759167   0.62311883
N    0.31612227  -1.92742121   0.30115303
C   -4.41063742   3.22843668   1.47808283
H   -4.84978155   3.70840311   0.62856248
H   -4.13203707   3.96691560   2.20052994
H   -5.11877415   2.55399234   1.91232503
C   -3.16038461   2.44548049   1.03598837
N   -2.22951456   1.86253401   0.70682895
C    2.43441298  -0.98512413   3.91239373
H    3.32567283  -1.42678542   3.51806980
H    1.79541882  -1.75291567   4.29590607
H    2.69041596  -0.30768398   4.70007159
C    1.70288474  -0.21942222   2.79428505
N    1.15822871   0.35067766   1.96180232
C    3.31144538   3.49835167  -2.11818174
H    3.63117584   3.10773454  -3.06162801
H    4.12633853   3.46903681  -1.42536943
H    2.98555208   4.50985336  -2.24290931
C    2.14747622   2.64693199  -1.57794075
N    1.28084827   2.01301134  -1.17570678
C   -1.56202022  -1.79724273  -4.27730997
H   -1.19042509  -1.26153719  -5.12574194
H   -2.62688011  -1.87753562  -4.34458227
H   -1.13108250  -2.77641576  -4.25701361
C   -1.18446474  -1.04341796  -2.98858965
N   -0.90335751  -0.48216116  -2.02907879
