31
Energy:   -400.02928203
Na  -0.00012259   0.00013851  -0.00011499
C   -1.92409227   4.66250346  -0.65048771
H   -1.15796002   5.31743037  -1.00967052
H   -2.29639527   5.02770947   0.28381103
H   -2.72242786   4.62354647  -1.36185381
C   -1.34190449   3.25034105  -0.45438895
N   -0.90843923   2.19892194  -0.30838451
C   -4.51844701  -1.63887349   1.63251079
H   -4.66666186  -2.65011339   1.31576735
H   -5.29077807  -1.02060778   1.22489415
H   -4.55029362  -1.59148435   2.70098594
C   -3.14771129  -1.14148848   1.13724143
N   -2.12713624  -0.77116273   0.76849089
C    1.14357358  -0.22506436  -4.94058557
H    2.18658972  -0.43412478  -5.05596001
H    0.91434636   0.71211002  -5.40324976
H    0.57087816  -1.00110142  -5.40392728
C    0.79657856  -0.15609080  -3.44177367
N    0.53822499  -0.10473685  -2.32584009
C    3.37277771   1.86202505   3.30509363
H    3.87639003   1.05461929   3.79434892
H    2.86563522   2.45971047   4.03343266
H    4.08718056   2.46458502   2.78408583
C    2.34965060   1.29662865   2.30252800
N    1.58788597   0.87566533   1.55607232
C    1.92639461  -4.66070446   0.65368923
H    1.82414482  -4.94849783   1.67917455
H    2.96215668  -4.65938052   0.38518547
H    1.39819365  -5.35492698   0.03404583
C    1.34304825  -3.24923866   0.45602459
N    0.90872037  -2.19833821   0.30885428
