31
Energy:   -383.87160424
Na   0.07106029   0.31771334  -0.14145469
C   -0.55030563  -3.30694046   3.34408556
H    0.35728556  -3.65618110   3.79041436
H   -1.05313064  -4.12475198   2.87159173
H   -1.18167672  -2.88885301   4.10004358
C   -0.22416336  -2.22898923   2.29372735
N    0.01866438  -1.42640555   1.51168791
C    1.61099275   0.15063218  -4.81477200
H    0.92062903   0.91212460  -5.11213946
H    1.48760457  -0.70736456  -5.44208058
H    2.61100040   0.51970138  -4.90789402
C    1.34292321  -0.24165822  -3.34990103
N    1.14333326  -0.53373625  -2.25923800
C   -1.79667700   2.84557009   4.02251235
H   -1.93275223   2.05589097   4.73158964
H   -2.70190680   3.40992716   3.93909058
H   -1.00545438   3.48693531   4.35040944
C   -1.43674465   2.24677784   2.65010696
N   -1.16875866   1.80094980   1.62828876
C   -4.43400223  -0.88083417  -2.17962720
H   -5.13989112  -0.10347215  -1.97388626
H   -4.75963455  -1.78960793  -1.71811561
H   -4.35994023  -1.02457697  -3.23733790
C   -3.05597426  -0.48481664  -1.61765833
N   -2.02996979  -0.18996359  -1.19924696
C    5.05375698   0.99210914  -0.34444347
H    5.60863314   0.32924941   0.28613533
H    5.41797589   1.99055943  -0.22058589
H    5.17023774   0.69405143  -1.36546889
C    3.56329928   0.93808979   0.03924618
N    2.45358577   0.89786993   0.32492056
