31
Energy:   -386.79337015
Na   0.03870312  -0.09105749   0.16174457
C   -1.09931814   1.93057449  -4.22127031
H   -0.40797375   1.29693776  -4.73648639
H   -0.81398795   2.95309337  -4.35521404
H   -2.08273934   1.78016737  -4.61517323
C   -1.08960800   1.58734811  -2.72003703
N   -1.08237837   1.33180047  -1.60230061
C    2.38282020  -0.72642325  -4.32112146
H    1.70328263  -0.30472159  -5.03196362
H    2.56073489  -1.75330707  -4.56351591
H    3.30716530  -0.18815533  -4.34856020
C    1.77441514  -0.63011657  -2.90967954
N    1.32142991  -0.55841188  -1.85879687
C   -3.74185053   1.39066707   3.23913568
H   -3.95775069   2.40419978   2.97260471
H   -3.40350692   1.35295982   4.25353247
H   -4.62706993   0.79848258   3.13616377
C   -2.64402139   0.83850990   2.31096886
N   -1.82663769   0.42740379   1.61990648
C    2.80982487   2.54642732   3.54742591
H    3.31886400   3.39142646   3.13299159
H    3.50337514   1.94840441   4.10082967
H    2.03064214   2.88357904   4.19865710
C    2.20043472   1.70571822   2.41012566
N    1.74671606   1.07977208   1.56335392
C   -0.37234784  -5.06234593   1.60554857
H   -0.19772035  -5.10573201   2.66031066
H    0.33750487  -5.68370058   1.10064600
H   -1.36276398  -5.40733227   1.39351227
C   -0.21987904  -3.60909116   1.11933479
N   -0.10635908  -2.52707692   0.75732654
