31
Energy:   -383.90137471
Na  -0.25928539   0.09891203   0.25435364
C   -1.57080446  -0.78969918   5.10713120
H   -0.69847673  -1.25729368   5.51370212
H   -2.44232096  -1.32268169   5.42538854
H   -1.62615020   0.22207758   5.45085162
C   -1.49231539  -0.80581849   3.56921715
N   -1.43387671  -0.81782005   2.42417023
C    2.28484931   3.37891330   3.18210694
H    2.74810680   3.99495310   2.43995626
H    3.03957701   2.87809487   3.75172619
H    1.69266974   3.98822399   3.83246295
C    1.38415540   2.33612689   2.49439553
N    0.71354785   1.55972501   1.98236311
C   -1.43218636   2.71775095  -3.97981228
H   -0.56839065   2.67809247  -4.61003792
H   -1.70580079   3.73872284  -3.81352742
H   -2.24272292   2.20378136  -4.45285016
C   -1.11503893   2.04512403  -2.63126100
N   -0.87890825   1.54432271  -1.62720329
C   -2.66364313  -4.10640481  -1.68408977
H   -3.63479033  -4.16169544  -1.23831376
H   -2.09644513  -4.97190308  -1.41187980
H   -2.76175569  -4.06461449  -2.74876183
C   -1.94104824  -2.84130170  -1.18512009
N   -1.40304349  -1.89937494  -0.81361448
C    3.71486310  -1.18887693  -2.89485599
H    4.55695661  -0.53539575  -2.80136244
H    3.30107243  -1.09906838  -3.87751097
H    4.02724034  -2.19895346  -2.73034173
C    2.64883556  -0.80490267  -1.85190391
N    1.85512960  -0.51901639  -1.07537867
