31
Energy:   -386.02899924
Na  -0.04195479  -0.03186387   0.15966829
C    0.36924203   0.14401962   5.19830171
H    1.41986016   0.25177823   5.37002771
H   -0.02227874  -0.61240499   5.84593770
H   -0.12192738   1.07347985   5.39768921
C    0.12755091  -0.26011487   3.73206137
N   -0.05239912  -0.56101136   2.64037880
C   -4.99157420  -0.28421263  -0.97287298
H   -5.37839027  -1.17814778  -0.52998084
H   -5.06560294  -0.35301638  -2.03808886
H   -5.55652344   0.55718913  -0.62969003
C   -3.51519496  -0.10957751  -0.57111818
N   -2.41596351   0.02044627  -0.27199347
C    0.56764534  -4.88927025  -1.76130017
H    1.56587212  -5.23326954  -1.58778375
H    0.36201178  -4.90616810  -2.81121845
H   -0.12334620  -5.52820674  -1.25219316
C    0.42141459  -3.45025465  -1.23266921
N    0.31253916  -2.37884213  -0.83907943
C    1.27986052   1.05855846  -4.64578848
H    0.95816004   2.01623109  -4.99831099
H    0.78690689   0.28941114  -5.20284162
H    2.33841991   0.96868775  -4.77335949
C    0.92881863   0.91656934  -3.15306993
N    0.66745198   0.81085199  -2.04167311
C    2.84939901   4.00454632   1.97041017
H    2.27333839   4.78997209   2.41331049
H    3.35970616   4.37933045   1.10784274
H    3.56495827   3.64367859   2.67938727
C    1.91416278   2.85408909   1.55401930
N    1.21783690   1.99752139   1.24399737
