31
Energy:   -382.98113000
Na  -0.38977648   0.21437310   0.29083440
C   -1.35844294  -4.70519123  -0.76576842
H   -2.27633947  -4.97395038  -0.28604489
H   -0.57090124  -5.33441197  -0.40693918
H   -1.45952028  -4.82856213  -1.82381477
C   -1.02535305  -3.23520697  -0.44986116
N   -0.77735248  -2.14073687  -0.21465384
C    1.77204607   0.40373601  -4.28899708
H    1.39877017   1.23890981  -4.84401962
H    1.42446965  -0.50478287  -4.73473596
H    2.84189942   0.41893645  -4.29804415
C    1.26974459   0.48742101  -2.83562512
N    0.89575830   0.54972829  -1.75352364
C   -5.31129993   1.01109785  -0.29747010
H   -5.84271788   0.52273707   0.49246591
H   -5.62298228   0.60907190  -1.23881400
H   -5.51886339   2.06045067  -0.27148613
C   -3.79912683   0.78230511  -0.11695309
N   -2.67324522   0.61195851   0.01745003
C    1.81001965  -0.45582709   4.95619783
H    2.86427335  -0.50490026   4.78001290
H    1.51803257  -1.25981200   5.59904376
H    1.56906514   0.47759354   5.42048864
C    1.05971856  -0.57148927   3.61632077
N    0.50108530  -0.65760503   2.61872140
C    3.38890226   3.55327046   0.00206083
H    3.83512069   3.98777316   0.87211641
H    3.14733321   4.32534856  -0.69825259
H    4.07655285   2.86716880  -0.44660416
C    2.10465505   2.80416823   0.40350193
N    1.14847463   2.24642757   0.70239308
