31
Energy:   -384.64322202
Na  -0.10464398  -0.18755627   0.19068757
C   -2.35006345   4.00975201  -1.09756361
H   -3.39761445   3.98961977  -1.31466214
H   -1.83846134   4.56011270  -1.85931520
H   -2.19120585   4.48038746  -0.14984760
C   -1.80733290   2.56925362  -1.05275367
N   -1.40324534   1.49673708  -1.01939063
C   -2.76533545  -4.42674158   1.09396596
H   -3.36747516  -4.23627191   1.95770739
H   -2.19285701  -5.31755366   1.24765842
H   -3.39695167  -4.55168370   0.23936107
C   -1.81358852  -3.23894669   0.85961349
N   -1.10496967  -2.35457940   0.68512743
C    4.55488133  -2.04833656   0.44011786
H    5.28004343  -1.39355582   0.00388135
H    4.42944913  -2.90821071  -0.18420762
H    4.88948378  -2.35650846   1.40860656
C    3.21013879  -1.30961688   0.57263479
N    2.20891684  -0.75960650   0.67129967
C    0.12358698   2.62891242   4.37813957
H   -0.01426371   3.64915721   4.08659551
H    1.12305126   2.49179819   4.73474851
H   -0.56933760   2.38339867   5.15562116
C   -0.11919953   1.71121924   3.16550033
N   -0.29996513   1.02795494   2.26263530
C    0.53424594   0.21154131  -4.89838633
H    0.36065308  -0.56354449  -5.61532963
H    1.52141297   0.60326429  -5.02859177
H   -0.18152942   0.99434236  -5.03905346
C    0.39348849  -0.36335216  -3.47666735
N    0.28868818  -0.79138648  -2.41813295
