31
Energy:   -380.43077846
Na   0.16811826  -1.12540830  -0.01133198
C   -3.90742179   1.16007866  -1.27396343
H   -3.55178132   2.08567126  -0.87184606
H   -4.89308178   0.96636099  -0.90538923
H   -3.93157505   1.22102640  -2.34195270
C   -2.96590034   0.01900465  -0.84607622
N   -2.26489482  -0.83057681  -0.52749475
C   -0.18584613  -6.06720151   0.72960755
H    0.42583819  -6.44790584   1.52068700
H   -0.01754291  -6.63977368  -0.15849955
H   -1.21609726  -6.13800518   1.00972993
C    0.17434699  -4.59328899   0.46608756
N    0.44252715  -3.49589412   0.26988494
C   -0.65970027   4.18154911  -0.63216604
H   -0.06107708   4.68259811   0.09961286
H   -1.69522333   4.35026323  -0.42210268
H   -0.42651202   4.56176264  -1.60477079
C   -0.36650728   2.67036494  -0.58789098
N   -0.14821177   1.54521964  -0.55492618
C    3.38294545   0.93515466  -3.24048076
H    3.12030726   0.84726653  -4.27401695
H    4.40854193   0.66015830  -3.10846579
H    3.24089423   1.94645858  -2.92112996
C    2.48930184   0.00191375  -2.40258907
N    1.82394355  -0.69292654  -1.77874062
C    1.19192874   0.95304815   4.51349024
H    1.43649615   1.97408861   4.30718139
H    2.00671214   0.48810150   5.02812771
H    0.31459344   0.91292294   5.12469547
C    0.92996200   0.21043776   3.19004655
N    0.73491585  -0.34246944   2.20468256
