31
Energy:   -386.09000218
Na  -0.48359407  -0.03103051   0.00007120
C    3.80869754  -2.12003357  -1.76963518
H    3.91990927  -3.01420384  -2.34668949
H    4.41125344  -2.18726259  -0.88798574
H    4.12127408  -1.27855065  -2.35195940
C    2.33152654  -1.94744335  -1.36991221
N    1.23170559  -1.81894209  -1.07230029
C   -2.53279895   4.25455658   1.96392030
H   -2.75128684   4.91902642   1.15420241
H   -1.78823091   4.69358978   2.59460831
H   -3.42274929   4.07923513   2.53150279
C   -2.00909697   2.91866655   1.40469399
N   -1.61917704   1.92403570   0.98832458
C   -1.32611548  -4.11482254   2.84188970
H   -1.56984075  -4.97920236   2.26021480
H   -2.10857024  -3.92734064   3.54723656
H   -0.40782674  -4.28388352   3.36444426
C   -1.17083241  -2.89727192   1.91180494
N   -1.05521710  -1.99075014   1.21931456
C   -2.92664257  -0.55656819  -4.44974860
H   -3.58092041  -1.39044518  -4.30322259
H   -2.20539975  -0.79710449  -5.20264312
H   -3.49679014   0.29380189  -4.76071734
C   -2.20243452  -0.23411289  -3.12946633
N   -1.66322870   0.00596973  -2.14645616
C    3.43671935   2.77924697   1.46738483
H    4.41410536   2.34385797   1.47467854
H    3.20855021   3.15988628   2.44101292
H    3.40745405   3.57817295   0.75621685
C    2.40052546   1.70818749   1.07914031
N    1.62903200   0.91073503   0.79007461
