31
Energy:   -384.76299251
Na  -0.02393908   0.19281588  -0.04581627
C    4.88055257   1.38826511  -0.90132691
H    5.26225965   1.75948765   0.02678608
H    5.04853089   2.11217827  -1.67115293
H    5.38080141   0.47668169  -1.15364785
C    3.36942945   1.12408657  -0.76598802
N    2.24432960   0.92739365  -0.66522206
C   -2.47806547  -0.47052121   4.35757668
H   -3.41190197  -0.90092793   4.06160436
H   -2.65212151   0.48487102   4.80683081
H   -1.99648161  -1.11426405   5.06367244
C   -1.57664753  -0.29959911   3.12071317
N   -0.90550090  -0.17233984   2.19981206
C    1.13612768  -3.60702799   2.89884384
H    0.77710488  -3.06723262   3.75009219
H    2.09769969  -4.02156022   3.11893791
H    0.45309302  -4.39611336   2.66282045
C    1.25196676  -2.65161855   1.69660672
N    1.33821422  -1.94027278   0.80148654
C   -3.10732209   4.03923298  -1.51056476
H   -3.88624655   4.27033952  -0.81431292
H   -3.53918516   3.71134697  -2.43299858
H   -2.51415710   4.91252488  -1.68496557
C   -2.21840575   2.92163356  -0.93402399
N   -1.55656712   2.08953000  -0.50476317
C   -0.52640179  -1.48158561  -4.73735722
H    0.42930115  -1.94283407  -4.87440442
H   -0.63748075  -0.67728405  -5.43425002
H   -1.29809359  -2.20449131  -4.90105875
C   -0.63136978  -0.93488082  -3.30149665
N   -0.70952322  -0.52783425  -2.23243318
