31
Energy:   -400.02920151
Na   0.00068045  -0.00035255  -0.00007502
C   -0.21546918  -4.90879963  -1.27560085
H   -0.77614336  -5.44434697  -0.53821786
H    0.77592091  -5.30777511  -1.32911115
H   -0.69213618  -5.00893098  -2.22831349
C   -0.14933383  -3.41966837  -0.88867162
N   -0.10009306  -2.31094247  -0.60058523
C    0.25805309   1.33739553   4.88987777
H    1.23475825   1.11928620   5.26852736
H   -0.47160727   0.78899270   5.44822281
H    0.06502777   2.38564945   4.98370765
C    0.18030525   0.93189731   3.40625839
N    0.12241846   0.62998545   2.30163632
C    5.07880306  -0.15505925  -0.22567658
H    5.47510635   0.81070360   0.00915527
H    5.38374336  -0.43546934  -1.21222647
H    5.44602926  -0.87213666   0.47848533
C    3.54100255  -0.10939939  -0.15723117
N    2.39604017  -0.07540356  -0.10627045
C   -5.07709859   0.16444307   0.22688986
H   -5.39004516   1.15243558   0.49303912
H   -5.42394845  -0.53006285   0.96327006
H   -5.48565200  -0.09410208  -0.72764542
C   -3.53947071   0.11415343   0.15781403
N   -2.39463687   0.07671051   0.10638392
C   -0.04503627   3.56267030  -3.61537112
H    0.73868246   3.36818502  -4.31741144
H    0.10501268   4.52422949  -3.17063712
H   -0.98828273   3.54649458  -4.12027068
C   -0.03139389   2.48193631  -2.51836250
N   -0.02123652   1.67728072  -1.70158971
