31
Energy:   -384.46669067
Na  -0.23221162   0.20019862   0.46803775
C    3.00658820  -3.73751484  -0.40863556
H    3.81698257  -3.75547696   0.28981882
H    3.39095377  -3.82609769  -1.40327885
H    2.34467020  -4.55392145  -0.20802677
C    2.23969278  -2.40915212  -0.27107138
N    1.66870427  -1.42012570  -0.16864860
C   -0.40584204  -0.58711131  -4.41124217
H    0.61160362  -0.34194559  -4.63394890
H   -1.05310643   0.14208200  -4.85195184
H   -0.63492205  -1.55388200  -4.80845229
C   -0.60892271  -0.59803288  -2.88473015
N   -0.76012551  -0.60616448  -1.74817256
C   -3.40533383   4.22489072   1.11938589
H   -3.95295120   4.33406950   0.20664530
H   -2.83712088   5.11280474   1.30280298
H   -4.08778034   4.06481226   1.92780455
C   -2.45276154   3.02021361   1.00554777
N   -1.74352818   2.12327675   0.92079011
C   -3.18734848  -2.15496788   3.79170702
H   -3.12134074  -1.57490225   4.68840486
H   -2.86703130  -3.15638779   3.99033773
H   -4.20055580  -2.16615200   3.44792667
C   -2.28510481  -1.53243483   2.71003749
N   -1.61334339  -1.06893068   1.90468536
C    4.24340824   1.99990051  -0.43233483
H    4.76052765   1.23690802   0.11110804
H    4.61140662   2.96012160  -0.13661242
H    4.40581869   1.86319553  -1.48106439
C    2.73574794   1.91279157  -0.13071839
N    1.61322633   1.84793502   0.09384875
