31
Energy:   -386.18432917
Na  -0.25307042   0.23435631  -0.56246496
C    0.11404398   0.22023040  -5.61970886
H   -0.45843628   1.05132930  -5.97529452
H   -0.31153113  -0.68973977  -5.98813689
H    1.12279108   0.30789559  -5.96560362
C    0.09865583   0.20757370  -4.07983776
N    0.08719865   0.19815021  -2.93333373
C   -4.51052803  -1.75988675   1.17536645
H   -4.30939693  -2.66363463   1.71173035
H   -5.23200633  -1.95292151   0.40913820
H   -4.89462307  -1.02302234   1.84945913
C   -3.20880497  -1.24187262   0.53600862
N   -2.23961298  -0.85618756   0.05997764
C   -1.32495392   4.68076770   1.44052939
H   -2.28148547   5.13666660   1.29185605
H   -0.55434991   5.37333869   1.17329544
H   -1.21672103   4.40614859   2.46900841
C   -1.21313149   3.42307359   0.55888248
N   -1.12987461   2.48666316  -0.09754372
C    2.79593926  -3.78431531   0.26696807
H    2.33585672  -4.55490103   0.84956732
H    3.65201904  -3.40737738   0.78652970
H    3.09972535  -4.18463729  -0.67767759
C    1.78877259  -2.64159036   0.04026349
N    1.03889122  -1.79077968  -0.12852837
C    3.25892281   0.35439086   3.18928175
H    4.11899803   0.31162819   2.55418952
H    3.11896043  -0.59401308   3.66450760
H    3.40281567   1.10884444   3.93426076
C    2.01539824   0.69508125   2.34715546
N    1.08953767   0.94874073   1.72015415
