31
Energy:   -381.85985235
Na   0.23736800   0.41063134  -0.34579301
C   -4.02319322   3.00102106  -1.33161595
H   -3.82343583   3.93606302  -1.81192179
H   -4.47080289   3.17925913  -0.37622290
H   -4.69159169   2.42483932  -1.93672517
C   -2.70447473   2.22799966  -1.14448109
N   -1.72262887   1.65245010  -1.00515068
C   -0.57423232  -4.09378682  -2.65092421
H   -1.59640300  -4.39691166  -2.56046643
H    0.06081387  -4.85745446  -2.25289510
H   -0.33892790  -3.93617834  -3.68276262
C   -0.35572450  -2.78523920  -1.86890283
N   -0.19303551  -1.81096602  -1.28665236
C   -0.01404168   2.04793315   4.53372206
H   -0.78318040   1.36527819   4.82920135
H   -0.26290986   3.03283309   4.86978132
H    0.91618292   1.74712528   4.96857366
C    0.11229943   2.04586478   2.99891470
N    0.20636613   2.04432479   1.85618085
C    0.40430232  -3.46243641   3.00982545
H    0.40742522  -4.31233760   2.35978054
H   -0.51657907  -3.43291211   3.55388874
H    1.22190115  -3.53537155   3.69620123
C    0.54845761  -2.17673258   2.17449025
N    0.65578778  -1.21946763   1.55254522
C    3.90445599   2.04854726  -3.33737712
H    4.86594138   2.01992333  -2.86873365
H    3.62050441   3.06614231  -3.50699705
H    3.94773786   1.52976757  -4.27219978
C    2.86701841   1.37182190  -2.42230005
N    2.09459897   0.86796911  -1.74098357
