31
Energy:   -382.70482623
Na   0.41087444   0.28023084   0.15180075
C    3.22121019   0.02464297  -4.24986315
H    2.67456195   0.38998375  -5.09402072
H    3.44742688  -1.01137798  -4.39264162
H    4.13149111   0.57771362  -4.14787989
C    2.37226649   0.19391306  -2.97619041
N    1.74018932   0.31994234  -2.02788316
C   -1.84076664   4.87822806   0.24787299
H   -2.87712656   4.74195680   0.01920636
H   -1.39646679   5.52319086  -0.48118100
H   -1.74451269   5.31763967   1.21872401
C   -1.12717518   3.51366583   0.22897499
N   -0.59587390   2.49768722   0.21490457
C   -3.16114466  -1.82977051   3.29805251
H   -3.00567298  -2.87800192   3.44617291
H   -3.99739663  -1.68170148   2.64716289
H   -3.35522145  -1.36133884   4.24028658
C   -1.90200218  -1.20839992   2.66555047
N   -0.96451338  -0.74576127   2.19462396
C    4.87057554  -0.95900358   2.26838930
H    5.57774674  -0.69906923   1.50862407
H    4.88792837  -2.01737441   2.42475157
H    5.12624109  -0.45961803   3.17951404
C    3.45983279  -0.52859303   1.82549919
N    2.40947069  -0.20813281   1.49574737
C   -3.42867699  -2.41270272  -1.87584451
H   -3.95027638  -1.84402561  -2.61708711
H   -4.12009356  -2.74662986  -1.13063657
H   -2.96482843  -3.25948745  -2.33703776
C   -2.35043404  -1.53182860  -1.21777693
N   -1.54763316  -0.87597778  -0.72781571
