31
Energy:   -384.53229868
Na   0.70720157  -0.11308383  -0.04446864
C    4.33031827  -3.30127287  -1.74718800
H    5.25548242  -2.98720685  -1.31091513
H    4.42849290  -3.32592860  -2.81238889
H    4.08071058  -4.27826595  -1.38930585
C    3.21672193  -2.31166590  -1.35708388
N    2.38759883  -1.57485853  -1.06663363
C    1.55256452   3.57536283   3.12504510
H    2.55860781   3.89682402   3.29662537
H    1.07766785   3.37403830   4.06251013
H    1.01512176   4.34458449   2.61089297
C    1.56162628   2.29534941   2.26884213
N    1.56837317   1.34232124   1.63136010
C   -0.13931512   2.26273797  -4.23986673
H   -1.06411924   2.80062250  -4.22204082
H   -0.25520386   1.37331223  -4.82329688
H    0.62219479   2.87688271  -4.67325797
C    0.26250033   1.88478451  -2.80205744
N    0.56167019   1.60338099  -1.73154308
C   -3.86544413  -2.18434888  -0.92318352
H   -4.38750185  -1.61854954  -0.18006373
H   -3.87372853  -3.21992536  -0.65408906
H   -4.34635750  -2.05817982  -1.87065532
C   -2.40998961  -1.68980925  -1.01636443
N   -1.32633756  -1.32160201  -1.08574185
C   -2.56317968  -0.24611782   3.91658563
H   -2.01031207   0.16347135   4.73602099
H   -2.90689530  -1.22648418   4.17278955
H   -3.40289393   0.38187671   3.70350832
C   -1.65563977  -0.32846815   2.67513900
N   -0.97993505  -0.38978172   1.75082556
