31
Energy:   -383.98543031
Na  -0.01897875   0.09168300   0.17287989
C    3.12212463  -2.87996127  -2.56844434
H    3.24367803  -2.44678319  -3.53925930
H    2.63210052  -3.82682045  -2.65918110
H    4.08216492  -3.01708246  -2.11631657
C    2.27070514  -1.94329083  -1.69132784
N    1.63678464  -1.24589711  -1.03827475
C    2.49326384   4.39042903   1.48545314
H    1.78277088   5.19009062   1.46012933
H    3.26925558   4.58010334   0.77358267
H    2.91736473   4.32102666   2.46536173
C    1.78860505   3.06641012   1.13612537
N    1.26395455   2.08061785   0.87603497
C   -4.91461635   1.77488627   0.62013121
H   -4.90247677   2.80093259   0.92341618
H   -5.46660076   1.19873908   1.33305948
H   -5.37817129   1.69243604  -0.34071106
C   -3.47046820   1.24603362   0.54043827
N   -2.39523425   0.85227877   0.48110325
C   -0.87971129  -1.47048670  -4.61507493
H   -0.58770318  -0.73584499  -5.33613873
H   -1.85286990  -1.84250316  -4.85892974
H   -0.17702909  -2.27737499  -4.62332768
C   -0.91070089  -0.83107892  -3.21443318
N   -0.93377406  -0.35501075  -2.17159173
C    0.22692437  -1.98306523   4.88179153
H   -0.47500273  -1.50665738   5.53389128
H    1.20353792  -1.94081627   5.31692380
H   -0.05590285  -3.00504696   4.73874884
C    0.23864101  -1.25865233   3.52286230
N    0.24736458  -0.71929399   2.51107771
