31
Energy:   -383.84838488
Na  -0.11709954   0.16208747   0.42268520
C   -0.62621026   1.83901801   5.17937704
H   -1.57496002   1.47666870   5.51624058
H   -0.56533194   2.89325637   5.35192969
H    0.15576669   1.34397349   5.71635196
C   -0.47380107   1.55570855   3.67335341
N   -0.36032550   1.34477178   2.55205036
C   -3.60436097  -2.88594894  -0.07705825
H   -3.72691544  -3.89486874   0.25754812
H   -3.49228733  -2.87419238  -1.14110730
H   -4.46482667  -2.31217290   0.19731177
C   -2.35084678  -2.27658680   0.57790737
N   -1.41754849  -1.82288898   1.06555904
C   -0.63586696   0.20083132  -4.63180331
H   -0.97583488  -0.67455872  -5.14465247
H    0.41483068   0.32315277  -4.79295855
H   -1.15618674   1.05783802  -5.00557590
C   -0.90991545   0.05123790  -3.12378499
N   -1.11395700  -0.06014121  -2.00099681
C    3.31915685  -3.64905166   0.74509049
H    3.86961855  -3.56044190   1.65834861
H    4.00058985  -3.70999308  -0.07760891
H    2.71716487  -4.53311029   0.77583274
C    2.41256618  -2.41648762   0.57050743
N    1.73756821  -1.49878766   0.44052241
C    1.70692126   4.40518570  -1.68449624
H    1.66926188   4.28013839  -2.74649677
H    2.72605117   4.49920132  -1.37235145
H    1.16696594   5.28718074  -1.40984722
C    1.07146827   3.18043242  -1.00055259
N    0.59834463   2.26854794  -0.49132546
