29
Energy:   -773.89003409
O    1.19491700  -1.81891763  -2.69853677
H    0.65814501  -1.75254518  -1.90878847
H    1.01146758  -1.01329168  -3.18180168
O    0.87258603  -2.33285882   1.69544166
H    1.37016535  -1.55879685   1.95902226
H    0.47023726  -2.08730616   0.86234430
O    1.11645377   0.79876061  -3.63576934
H    1.86692174   0.77041739  -3.04228275
H    0.35963582   0.91060639  -3.06048770
O   -1.03282954  -0.76174130   2.90379547
H   -1.25346886  -0.24968560   2.12575363
H   -0.51693449  -1.49557958   2.56978123
O   -3.25200326   1.82827823  -1.38580261
H   -2.40590488   1.56673593  -1.74904497
H   -3.19311315   1.60647076  -0.45652050
O    1.57319104   0.22018630   2.57250398
H    0.66521769   0.09209307   2.84710982
H    1.50841051   0.55669641   1.67874994
O   -2.82400545   1.52011892   2.72963360
H   -2.36853207   1.39482000   1.89712172
H   -2.49885027   0.81514694   3.28956257
O    2.94018411   0.10098118  -1.67275319
H    2.36712685   0.48471843  -1.00898897
H    2.51099368  -0.71960149  -1.91497521
S   -0.32968750   0.30848787  -0.38188786
O   -0.72927442   0.86393376  -1.70548529
O   -0.21382177  -1.17377081  -0.47978740
O    0.98409244   0.88376788   0.02201211
O   -1.35974626   0.66002067   0.63570915
