29
Energy:   -778.26349411
O    0.32036177   2.96551698   0.62665556
H    0.53788223   2.11030623   0.25580347
H   -0.19519624   2.76432412   1.40765058
O    1.74424405  -3.15269247   0.36430397
H    2.21626846  -2.44453607  -0.07380482
H    0.95412235  -2.73693057   0.70938599
O   -2.11584249   0.86539539  -2.85677303
H   -1.73029659   0.11339447  -2.40723902
H   -2.15191222   1.55105692  -2.18984044
O    2.49858547  -1.09151285  -1.34975309
H    1.94256097  -0.45960838  -0.89394024
H    1.88765491  -1.62898944  -1.85385091
O   -1.02312450   1.75768674   2.75889772
H   -1.46439119   1.30938124   2.03741471
H   -0.26273583   1.20956514   2.95281427
O    1.13213693   0.00016703   2.77466650
H    0.59867904  -0.75984861   2.54222130
H    1.34522475   0.40935632   1.93598328
O   -2.15048328   2.65636758  -0.67953038
H   -2.21767175   1.80824242  -0.24089470
H   -1.28319179   2.98262720  -0.43954711
O    0.63448993  -2.99634395  -2.16672108
H    0.92568382  -3.28438148  -1.30157811
H   -0.02807940  -2.32927209  -1.98714138
S   -0.60530799  -0.48906918   0.08195593
O   -0.93903846  -1.02874685  -1.26618056
O   -0.36014086  -1.61852995   1.02233427
O    0.61895857   0.35519828  -0.01015196
O   -1.74101121   0.33580182   0.58182197
