29
Energy:   -778.14314166
O    4.19093555  -0.23559368  -1.83358807
H    3.43127276  -0.75458846  -2.09776361
H    3.86224984   0.33415918  -1.13818946
O   -0.45309852  -2.81701613  -2.08146644
H   -0.82230632  -2.73253676  -1.20238698
H    0.33827035  -2.27887760  -2.06212553
O   -1.95563803  -0.53002913  -2.45384064
H   -1.32132253   0.09155109  -2.09675000
H   -1.45976937  -1.34101475  -2.56630595
O    1.52728739   2.02904368   2.12731522
H    1.89523941   1.64896275   1.32957990
H    1.02916287   1.31526756   2.52559585
O   -0.08095096  -0.05189804   2.97732465
H    0.24447867  -0.46424644   2.17713955
H   -0.94572770   0.28297057   2.74014108
O   -2.39887213   0.79714607   1.75068640
H   -1.86049114   1.45952441   1.31752049
H   -2.32692961   0.02496031   1.18962912
O   -2.05477854  -1.47181603   0.13544608
H   -1.13896336  -1.32884572   0.37434752
H   -2.14815876  -1.05170611  -0.71955079
O   -0.70854999   2.65291909   0.62902334
H   -0.52888038   2.08889700  -0.12319323
H    0.07364361   2.58000155   1.17591277
S    1.05306622  -0.10169750  -0.62211438
O    0.50996469  -0.89993183   0.51277006
O    1.52559341  -1.02139858  -1.69494614
O   -0.01604730   0.78423487  -1.16268827
O    2.19275407   0.73030554  -0.14359318
