29
Energy:   -771.06478469
O   -2.76632635  -1.88026650   0.93465820
H   -1.80983731  -1.91148614   0.91501392
H   -2.98582658  -1.02080514   0.57496713
O    1.21096197   0.19422828  -2.28999787
H    1.86933545  -0.30467431  -1.80639430
H    0.59401689   0.48959359  -1.62039355
O   -3.03444947   0.84191144   0.48958637
H   -2.93418881   0.75340345   1.43739752
H   -2.13919650   0.91899145   0.15971875
O    2.86729755   1.94570121  -0.76751361
H    2.60487267   1.38828957  -0.03494465
H    2.39745012   1.58858217  -1.52113237
O    2.87896013  -1.53185756  -0.90866265
H    2.11238970  -2.08490596  -1.05945753
H    2.63916637  -0.98887041  -0.15773272
O    0.40213970  -2.48269419  -1.64552133
H    0.41873291  -1.63800126  -2.09546618
H    0.14568014  -2.27143793  -0.74784035
O   -2.67744011  -0.13491332   3.08439101
H   -2.76653595  -0.90967113   2.52937379
H   -1.76743741   0.13897271   2.96987736
O    0.48001507   3.31902375  -0.68649379
H   -0.00561831   2.52647148  -0.45790470
H    1.40019790   3.06227693  -0.62669013
S    0.27399118  -0.03517536   0.97197817
O   -0.36053323   0.78726242  -0.09623290
O    1.75506986   0.10867865   0.89574206
O   -0.20215827   0.42935366   2.30524277
O   -0.09641366  -1.46599620   0.78316074
