29
Energy:   -773.12722409
O   -2.33597891  -1.77795727  -1.30554491
H   -1.86716825  -1.38060603  -2.03941166
H   -2.24397254  -1.14666568  -0.59193605
O   -1.30905456  -0.76631782   3.11702617
H   -0.35236893  -0.74383863   3.09513688
H   -1.57475870  -0.54692279   2.22399818
O    1.35623034   0.01800208   2.93131774
H    0.87272340   0.81005157   3.16607397
H    1.32282359  -0.00899857   1.97508200
O    1.28310222   2.42311273  -2.84719226
H    0.48884512   2.20618767  -2.35900068
H    1.91594720   1.75443419  -2.58526081
O    2.41342346   0.03127644  -1.99203673
H    1.68429391  -0.24477127  -2.54737411
H    2.03254403   0.10992890  -1.11740738
O    0.30780571  -2.42400217  -0.70979926
H    0.61540608  -1.63496800  -0.26366144
H   -0.64673937  -2.35758055  -0.68403652
O   -0.10896971  -0.86597512  -2.91823772
H   -0.32400295  -0.04301888  -2.47922112
H    0.14424944  -1.45714945  -2.20927734
O   -0.61642286   1.88283277   3.57260266
H   -1.07068793   1.04052829   3.55264597
H   -0.54206736   2.13724696   2.65283284
S   -0.44801870   0.85566729   0.10053042
O   -0.63025664   1.23222247  -1.32953795
O   -1.59523597   0.01387725   0.54255085
O    0.81965568   0.08790795   0.25430713
O   -0.38623787   2.08866148   0.93480164
