29
Energy:   -777.90661749
O    0.23843410   3.02973781  -0.67379192
H    0.58148833   2.22393357  -0.28749518
H   -0.60970012   3.15745955  -0.24883622
O    0.95530328  -3.28396067   0.50046764
H    0.72441399  -3.06343758  -0.40191341
H    0.47204762  -2.65226116   1.03305710
O   -2.44604203   2.97111572   0.06381011
H   -2.42269157   2.52469319  -0.78259023
H   -2.14782341   2.31230636   0.69092073
O    2.33550790  -0.40654225  -1.72788230
H    1.70583030   0.12846268  -1.24465596
H    2.80849902  -0.89060967  -1.05098498
O    2.86403813  -1.30402573   0.80171846
H    2.26393820  -0.55830782   0.80580792
H    2.29261237  -2.07193690   0.80582687
O   -1.66503829  -0.33181515   3.87574972
H   -1.79445872   0.39769681   3.26970144
H   -1.14087517  -0.96315196   3.38290217
O   -1.62323524   1.60066425  -2.19464470
H   -0.84921776   2.07685268  -1.89402306
H   -1.60398482   0.77813692  -1.70545142
O    0.26393665  -2.20965628  -1.95982333
H    1.01721312  -1.62125409  -2.01070816
H   -0.41101671  -1.69746897  -1.51447630
S   -0.52185034  -0.04115170   0.71855633
O   -0.29218566  -1.21052189   1.61294299
O    0.78835159   0.55655147   0.33616671
O   -1.24097138  -0.48745752  -0.50772914
O   -1.34259593   0.97682115   1.43284477
