29
Energy:   -777.54086929
O    1.76298925   1.80088820   1.55556651
H    1.88293352   1.00640788   2.07580324
H    1.69913161   1.48923009   0.65278012
O   -1.05459973  -2.54693576   1.53177630
H   -1.45981523  -1.94560294   0.90693146
H   -0.11761681  -2.49302213   1.34365886
O   -0.97308409   1.43594527   1.58245887
H   -1.06144715   0.81670365   0.85791513
H   -0.05215132   1.69632529   1.56465617
O    0.67064925   1.67424334  -3.20811966
H    1.00964384   1.41880994  -2.35017543
H    0.47069854   0.84561039  -3.64357230
O    1.80411069  -0.60747511   2.90552381
H    1.73916718  -0.97375622   2.02356444
H    0.90079253  -0.57956966   3.22091155
O   -0.90145114  -0.57144676   3.40637992
H   -0.97727549   0.18961873   2.83082642
H   -0.97051257  -1.32422211   2.81919031
O   -1.90580523   1.00767956  -2.39276574
H   -1.69088419   0.45467345  -1.64161660
H   -1.09075225   1.46795750  -2.59292743
O   -0.53880221  -0.67470043  -4.11750760
H   -0.02105702  -1.10150714  -3.43485996
H   -1.22153225  -0.20246330  -3.64095367
S    0.61296001  -0.70216973  -0.66446472
O    0.74160466  -1.47210414  -1.93361860
O    1.30867890   0.60785371  -0.80558099
O   -0.82872929  -0.46955887  -0.36861988
O    1.23028576  -1.47486962   0.44996061
