29
Energy:   -778.10990629
O    0.24632867   2.36167102   2.17061492
H   -0.50260585   1.93030840   2.58202132
H    0.23621900   2.04898038   1.26598560
O    1.16900678  -0.12092255   3.03399010
H    0.94346943  -0.63847081   2.26100332
H    1.10520991   0.78813919   2.74112741
O   -3.68337052  -1.39216156  -0.74390160
H   -2.91809202  -1.44161986  -1.31673190
H   -3.37879588  -0.90547164   0.02199595
O    2.19025474   0.73877003  -1.88464130
H    1.51486425   1.01146248  -1.26357902
H    1.76990039   0.06112647  -2.41410640
O    2.71081078  -1.59591261  -0.49380130
H    2.76591435  -0.71657495  -0.86791454
H    1.90812573  -1.58504008   0.02755304
O   -1.48637868   0.56261896   3.39330052
H   -1.77860295   0.34523685   2.50809894
H   -0.62138562   0.15927160   3.46630569
O   -1.17082916   1.61723573  -2.75205310
H   -0.69574961   1.92587713  -1.98051454
H   -1.31851621   0.68612293  -2.58637466
O    1.11789728  -1.71689527  -2.74174034
H    1.67986444  -1.90434505  -1.98988441
H    0.28064967  -1.45779612  -2.35688205
S   -0.60493642  -0.22780046  -0.01577317
O   -0.98740450  -0.79618474  -1.33893510
O    0.33255663  -1.15912125   0.67259327
O    0.06119614   1.09001184  -0.21511756
O   -1.82609394  -0.04590767   0.81836670
