29
Energy:   -779.19445600
O    0.14591043   1.23104875   2.28150932
H   -0.47544487   0.51680805   2.42296484
H    0.58321755   1.00941476   1.45939455
O    0.60384170   2.34901313  -1.73095267
H    0.96239412   1.70852127  -1.11658942
H    0.10347371   1.82641934  -2.35765790
O   -1.20520057  -1.14633633   2.66430542
H   -0.31082473  -1.41549400   2.87377582
H   -1.25055383  -1.18700299   1.70904569
O   -2.56535943   0.77375489  -0.90759846
H   -2.05961508   0.02868877  -0.58305114
H   -2.17937011   1.53376386  -0.47213266
O    1.53994861  -1.30848093   2.92053381
H    1.58533974  -1.69039201   2.04399778
H    1.41999688  -0.37115699   2.76799771
O   -0.93271469   0.55118173  -3.14168090
H   -0.31443302  -0.11061357  -2.83186382
H   -1.59096455   0.60758192  -2.44903525
O    2.33787274  -3.43030447  -1.87662519
H    1.83736654  -2.73355355  -2.30119973
H    2.22987983  -3.26666072  -0.93972066
O   -1.14638038   2.80769220   0.32714170
H   -0.52592026   2.71203374  -0.39543048
H   -0.76789366   2.29096939   1.03846244
S    0.59621413  -0.96667499  -0.38321399
O    0.71988204  -1.15913161  -1.85554774
O    1.36887427  -2.02708382   0.32292298
O    1.13449166   0.37172367  -0.01032482
O   -0.83839146  -1.05220820   0.01009364
