29
Energy:   -771.89506137
O    0.97286168   2.17662878   0.36680203
H    1.53391459   1.59532500   0.88016097
H    0.26269147   1.61388204   0.05824697
O   -3.52507607  -1.97014250   1.23051633
H   -2.83169620  -2.15978372   0.59846222
H   -3.08519410  -1.49097726   1.93275302
O   -3.27544570   0.63850052   0.27269176
H   -2.42451795   0.62764002  -0.16552720
H   -3.49125098  -0.28522216   0.40073994
O    2.10096648  -0.01379445  -2.85497075
H    1.54114085   0.75978832  -2.78866235
H    1.69397308  -0.65519843  -2.27257127
O   -2.10440051  -0.09463245   2.69560999
H   -2.48757624   0.39608102   1.96855532
H   -1.27904721  -0.43286224   2.34829977
O    2.41831354   0.21712075   1.68591269
H    2.88031757  -0.16819900   0.94139082
H    1.56702877  -0.22048674   1.69267888
O    0.37813777   2.06813141  -2.36614191
H   -0.17344876   1.38025427  -1.99357085
H    0.84645285   2.43318605  -1.61537700
O    3.49189332  -0.99197876  -0.56705589
H    2.61814425  -1.38274729  -0.55734158
H    3.48725831  -0.41270166  -1.32905878
S   -0.30797609  -1.06850380  -0.18399421
O   -1.40474285  -2.06124314  -0.36195849
O    0.02658611  -0.95212665   1.26328755
O    0.89617730  -1.51831285  -0.93751026
O   -0.74992491   0.25766743  -0.69979563
