29
Energy:   -771.39056483
O    1.17070358   1.94935822   0.97055594
H    1.61047095   1.27077779   1.48277183
H    0.37181545   1.52944639   0.65167718
O   -0.01227307  -2.67841961   2.94111113
H   -0.44303490  -2.66867857   2.08637070
H    0.79784722  -2.18648039   2.80719780
O   -2.93922464  -0.12114952  -2.87278600
H   -2.27325831  -0.71799279  -2.53146679
H   -2.68719572   0.73821449  -2.53484107
O    2.44624390   0.85341718  -1.22713648
H    2.07985932   1.47027142  -0.59350801
H    2.11632822  -0.00091212  -0.94873220
O    1.74079900  -0.44643547   2.36542723
H    0.85615422  -0.18551509   2.62146631
H    1.64706404  -0.76299174   1.46696314
O   -0.90850491  -0.02922915   2.95741467
H   -1.05513135   0.17390036   2.03357977
H   -0.88749919  -0.98555668   2.99246143
O   -1.52138309   1.99343213  -1.75333922
H   -1.43030267   1.44574041  -0.97361492
H   -0.85575732   1.66392091  -2.35715752
O    0.46943794   0.66341200  -3.16212298
H    1.20875293   0.78481769  -2.56638323
H   -0.00498872  -0.08774704  -2.80587687
S   -0.39262859  -1.09606890  -0.26388425
O   -0.85191958   0.23236799   0.23049134
O   -1.03126806  -2.17403159   0.54248792
O   -0.77602571  -1.25305933  -1.69512870
O    1.08869900  -1.18955268  -0.13338755
