29
Energy:   -775.88260595
O    2.08796041   2.27055833   0.82706591
H    2.59339716   1.45785331   0.81044969
H    1.18720855   1.99654857   0.65444902
O   -0.08720875  -1.86435536   2.46643044
H   -0.61069678  -1.07604274   2.61049757
H    0.38301333  -1.69433347   1.65021012
O   -3.20912281   0.85103409   0.14521978
H   -2.80096023   0.11407716  -0.30923553
H   -2.48991788   1.46183605   0.30614551
O    3.40982310  -0.05167400   0.04815648
H    2.59188705  -0.54288445   0.12512895
H    3.30639923   0.46274548  -0.75241079
O   -1.58309228   0.47693244   2.46881053
H   -0.96954181   0.79188741   1.80504020
H   -2.36675034   0.23453085   1.97550194
O   -2.10513437  -2.76273234   0.80976075
H   -1.90491914  -2.15793571   0.09536118
H   -1.41082062  -2.61413737   1.45169518
O    2.72843483   1.88271722  -1.83836606
H    2.51034899   2.26577208  -0.98869590
H    1.98334958   1.31872093  -2.04570155
O   -1.17370807  -0.82944926  -3.74035616
H   -1.61570214  -1.08131015  -2.92952992
H   -0.39364568  -0.35593581  -3.45135871
S   -0.02204301  -0.12175686  -0.64122782
O   -1.31404460  -0.81563870  -0.90459045
O    0.89487954  -1.04031803   0.09061806
O    0.60125798   0.27524563  -1.93505351
O   -0.27026496   1.09368369   0.18411463
