29
Energy:   -777.26068960
O    1.08835244   2.25445686   2.16731423
H    1.31831375   2.06316995   1.25805137
H    0.17681116   1.97384788   2.24844958
O   -0.01444200  -1.31116572   2.15025468
H    0.03478519  -1.23450347   1.19740032
H    0.80529826  -0.92961579   2.46438427
O   -2.90917763   0.49443095  -2.16480458
H   -2.31517515   0.88520146  -1.52395256
H   -2.34831004   0.27329378  -2.90828138
O    3.09166596  -0.81175739   0.28246441
H    2.32783419  -1.33955560   0.04960839
H    2.84221643   0.08426371   0.05629417
O    2.34143116  -0.07808539   2.80077086
H    1.94314941   0.77593099   2.63266518
H    2.66474357  -0.36443454   1.94654308
O   -1.40344014   1.08259408   2.14043871
H   -1.36726101   1.25457010   1.19950983
H   -1.03334014   0.20529736   2.23846063
O   -1.86252600  -2.01969185  -1.58538230
H   -1.04173750  -1.75592853  -1.16948927
H   -2.38889691  -1.22047369  -1.60577456
O   -1.16020586  -0.75603198  -3.94966012
H   -0.49858382  -0.18979719  -3.55233623
H   -1.35069063  -1.41062198  -3.27775289
S    0.34100051   0.60912269  -0.92512578
O    0.45780614   0.67545963  -2.40905835
O    1.50092846   1.30820391  -0.30387494
O   -0.92427641   1.26902708  -0.49652280
O    0.32954386  -0.81619987  -0.49104703
