10
Energy:   -254.14476311
O    1.17805849   0.59193627  -1.54926391
H    1.28659552   0.30004707  -0.64413836
H    0.52170246  -0.00077400  -1.91549217
O   -1.55736610   0.91803080   0.63110678
H   -0.85125030   1.18673457   0.04337333
H   -1.23715796   0.11335343   1.03877446
C    0.42823802  -1.38565664   0.90197979
O   -0.13375129  -1.57294038  -0.33335466
O   -0.56170048  -1.19326458   1.82939870
O    1.24468484  -0.28558313   0.86983840
