10
Energy:   -253.56218512
O    0.97743411  -1.22190438   1.03104109
H    0.42492099  -1.41928389   0.27473267
H    1.25614265  -0.31636428   0.89484080
O   -1.80173780  -0.43486001  -0.61818338
H   -1.95125411   0.21063729   0.07262047
H   -0.94282285  -0.20940202  -0.97548667
C    0.79483478   1.48528427  -0.43871270
O   -0.36047825   1.76401578   0.24284354
O    0.58453237   0.42336457  -1.27847351
O    1.78697050   1.17313117   0.45347975
