10
Energy:   -261.63871741
O    1.16377626   0.87037449   0.89993635
H    0.62185053   0.10859592   1.10546436
H    1.51984585   0.68422086   0.03114804
O   -1.15616034   1.07550694  -0.58388228
H   -0.40536098   1.22901883  -0.01032647
H   -1.16383672   0.12818009  -0.72079381
C   -0.09646449  -1.79018378  -0.23939517
O   -1.27568349  -1.58883109  -0.90712119
O   -0.20338629  -1.29752723   1.03455775
O    0.91646687  -1.14227182  -0.89663207
