10
Energy:   -253.95467918
O   -0.61682554  -0.06785506  -1.87289839
H   -0.73415801   0.66967930  -1.27414301
H   -0.49351213  -0.82474796  -1.30006440
O    1.17222520  -1.34601249   0.75475854
H    1.78239101  -0.60850956   0.75040290
H    0.30954529  -0.94317764   0.85344646
C   -0.65404060   1.26025445   1.01152062
O    0.69486804   1.35041073   1.23350196
O   -1.02643818  -0.05810212   0.99268507
O   -0.95789553   1.83842901  -0.19312313
