10
Energy:   -254.71822781
O    1.51154773  -0.83794981  -0.47409703
H    0.78184858  -0.46252079  -0.96686883
H    1.16980977  -0.94965551   0.41301562
O   -0.70188199   1.17589139  -1.30107390
H   -0.04838888   1.64438601  -0.78175571
H   -1.02461935   0.48906610  -0.71768427
C   -0.83935131  -0.41405086   1.59060354
O   -0.55590328   0.92621484   1.57318374
O    0.29830960  -1.11739333   1.88748026
O   -1.30622045  -0.79774042   0.36072723
