10
Energy:   -255.71040202
O    0.37927997   1.60587270   0.42378981
H    0.94113545   1.04768579  -0.11377660
H   -0.34291580   1.03594533   0.68807735
O   -1.61373728  -0.52709705   0.67309202
H   -1.38380287  -0.27292648  -0.22064135
H   -0.82783966  -0.95735674   1.00995011
C    1.09566567  -0.98074726  -1.04745383
O    2.04169538   0.00766420  -1.11836891
O   -0.09210647  -0.51225028  -1.54425026
O    0.92756965  -1.35861210   0.25896957
