10
Energy:   -253.32264726
O   -1.12021963   0.46184241   1.35402452
H   -0.91431433  -0.39432895   0.97878398
H   -0.90940582   1.08542293   0.65908803
O    0.89622589  -1.62838924   0.24134252
H    1.58753771  -0.97519652   0.34931976
H    0.28963446  -1.23443857  -0.38561965
C    0.08137558   1.04180821  -1.47334001
O    1.37402292   0.86993298  -1.05324463
O   -0.53226235   1.98263395  -0.68886936
O   -0.59279099  -0.14701292  -1.37342029
