10
Energy:   -263.83858690
O    1.00507741  -0.54240739  -1.27094963
H    0.25676818   0.05439073  -1.26109307
H    1.19143845  -0.70890849  -0.34694812
O   -1.26722921   0.89116366  -0.67116939
H   -0.64414675   1.04774775   0.03839493
H   -1.60082137   0.00906327  -0.50731877
C    0.36523132  -0.26005621   1.77401253
O   -0.79646641  -0.89124597   1.41482419
O    0.35338326   1.02413764   1.29672374
O    1.43379482  -0.93484961   1.24428986
