10
Energy:   -255.94085878
O   -0.94601766   0.72953131  -1.36720575
H   -0.12935924   0.59228844  -1.84727372
H   -1.00641972  -0.02144063  -0.77676135
O    0.30613963   1.20308209   1.30610983
H    0.57741232   0.28893993   1.38969866
H   -0.16047326   1.23955596   0.47114042
C    0.48831587  -1.77667133   0.26024962
O    1.09195774  -1.36951990  -0.90026862
O   -0.81155554  -1.34398038   0.27479787
O    1.15807385  -1.24834453   1.33266523
