10
Energy:   -254.14430585
O    0.60778627  -0.46283382  -1.54036557
H    0.94343415  -0.67089009  -0.66842237
H   -0.31023014  -0.23357707  -1.39573136
O   -1.33571036   1.24576755  -0.04992355
H   -0.48579448   1.66625894   0.08069744
H   -1.23889944   0.38034629   0.34744975
C    0.63646563  -0.69855064   1.49532450
O    1.49641278  -1.59322663   0.91480391
O   -0.63819040  -0.93830529   1.05388537
O    1.00600783   0.57631954   1.15484720
