10
Energy:   -253.96968674
O    1.65071334   0.84097359   0.27015876
H    1.00490648   0.54695635   0.91259101
H    1.19330496   0.79274737  -0.56929562
O   -0.94286882  -0.79196872   1.47356955
H   -0.64834037  -1.49150272   0.89035688
H   -1.12487737  -0.05455901   0.89104774
C   -0.64913553  -0.00379783  -1.61832671
O   -0.27678719  -1.23168799  -1.13811755
O    0.45903809   0.66713531  -2.06430735
O   -1.24697716   0.71566153  -0.61695574
