10
Energy:   -253.99915097
O    1.02468595   1.28514308   1.20254644
H    0.96022943   1.06213275   0.27392187
H    0.12105730   1.26448017   1.51760224
O   -0.08495796  -1.91364716   0.16280759
H    0.45840489  -1.25843401   0.60062535
H   -0.50451516  -1.43748965  -0.55376595
C   -0.80137051   0.62575405  -1.32849691
O   -1.33572759   0.85423359  -0.08784466
O   -1.23566861  -0.58650944  -1.79636568
O    0.56621223   0.61920471  -1.24215603
