10
Energy:   -253.73870190
O   -0.78214436  -1.25948088   1.16622838
H    0.12933265  -0.97774526   1.08834035
H   -1.29066404  -0.52427485   0.82401254
O    1.86356999  -0.15769226  -0.74188256
H    1.30242740  -0.45155373  -1.45951497
H    1.32083394   0.45819966  -0.24959548
C   -0.94312156   1.35354415  -0.36592888
O   -0.73676350   0.48471755  -1.40492603
O    0.16881107   1.38076684   0.43404833
O   -2.02398084   0.93928733   0.36749780
