10
Energy:   -254.02414648
O   -1.08304650  -0.61009816   1.46004133
H   -0.67131731   0.24538535   1.33814424
H   -0.66537056  -1.17257489   0.80781547
O    0.36662424   1.91470127  -0.33534293
H    0.79793559   1.06439322  -0.25061642
H   -0.27660201   1.78907142  -1.03298824
C    0.76934869  -1.27304349  -0.93326834
O   -0.08017544  -0.53235568  -1.71214492
O    0.04896042  -2.19772174  -0.22396611
O    1.43101895  -0.44493698  -0.06481438
