10
Energy:   -253.95171254
O    0.36878272  -0.82968034   1.51402683
H    0.09557202  -1.31275568   0.73413839
H    0.25256024   0.09092391   1.27905446
O   -0.32155282  -1.04061510  -1.52842953
H   -0.74493594  -0.36821704  -0.99470729
H    0.55429562  -0.69462848  -1.69993643
C   -0.14339438   1.75731012   0.04787793
O    0.15613328   1.97717122   1.36655252
O   -1.21248648   0.90515888  -0.04144814
O    0.93972699   1.19925346  -0.57917954
