10
Energy:   -254.87556091
O    0.57097607   1.65444853  -0.89832461
H    0.26069430   1.09700901  -1.61191991
H    0.89063839   1.04130237  -0.23643366
O   -1.71169255  -0.20735862   0.84272577
H   -1.23804010   0.61887083   0.74665239
H   -1.03803377  -0.88173466   0.75536070
C    1.10468366  -1.34066679   0.14363821
O    0.80203926  -1.11859358  -1.17395362
O    0.08556827  -2.04027904   0.73443878
O    1.26581246  -0.13967793   0.78351591
