10
Energy:   -254.01196099
O   -0.00570701   1.81557717   0.58736768
H   -0.42989060   0.97436372   0.75666052
H    0.92260963   1.65453884   0.75626625
O   -0.01962711  -0.35876500  -1.81861647
H   -0.02168076   0.41785183  -1.25906850
H   -0.11159083  -1.09261070  -1.21096114
C   -0.15492064  -1.36373821   1.09254538
O    1.02282616  -0.67873518   1.23621765
O   -0.05504073  -2.22609932   0.03261326
O   -1.17414374  -0.47637024   0.86551549
