10
Energy:   -253.97388086
O    0.58678946  -1.03491127  -1.45373689
H    0.94008177  -0.97968890  -0.56583663
H   -0.30447785  -0.69389273  -1.37903224
O   -1.51439240   1.12601546  -0.20729390
H   -0.74429999   1.67657456  -0.34897735
H   -1.22220386   0.46031394   0.41536105
C    0.85255409  -0.18654830   1.58832154
O    0.92060133   1.11567159   1.16814143
O    1.75691699  -0.94019170   0.88743057
O   -0.41108408  -0.67043085   1.37185801
