10
Energy:   -253.60082014
O    0.53601507   0.81727055   1.60305831
H    1.08618626   0.27985773   1.03320660
H   -0.26600543   0.95739029   1.09970812
O    1.13930822  -1.26175770  -0.63345935
H    0.72519119  -0.44690421  -0.91762959
H    0.40825363  -1.83339664  -0.39889599
C   -1.50887410   0.62183361  -0.87132954
O   -1.61956517  -0.74370030  -0.87612414
O   -0.24307131   0.97854284  -1.25551776
O   -1.75392611   1.09507491   0.39111745
