10
Energy:   -255.90831959
O    0.47120642  -1.69403474  -0.11603270
H   -0.26067941  -1.67606951  -0.73267865
H    0.21867516  -1.08068628   0.57408575
O    1.20255304   1.17578632  -0.83267249
H    1.35313689   0.24031528  -0.69684067
H    0.39917422   1.36255553  -0.34694461
C   -1.44923004   0.62286485   0.98937156
O   -1.94079166  -0.31292373   0.11780672
O   -1.13178631   1.76467388   0.30191219
O   -0.32643488   0.13079393   1.60172558
