10
Energy:   -255.44806113
O    1.48201612   0.81740285  -0.81936033
H    0.52765906   0.87226192  -0.77011655
H    1.66386287  -0.11707228  -0.91895870
O   -0.01668563  -0.18515640   1.86507272
H   -0.68114462  -0.53625509   1.27223564
H    0.46734888   0.44808010   1.33502181
C   -1.47739591  -0.44051512  -0.90976058
O   -0.48346576  -1.06854419  -1.61306758
O   -1.06215546   0.81628549  -0.55602848
O   -1.76338289  -1.16224932   0.21943887
