10
Energy:   -254.26723628
O   -0.15296026  -0.88787502   1.58228665
H    0.15672251  -0.01308222   1.81694807
H    0.20280913  -1.04163723   0.70706258
O   -1.57374446   0.57364389  -0.68644837
H   -0.71090722   0.84230053  -1.00199132
H   -1.41397503  -0.24691357  -0.22019625
C    1.55079962   0.22540717  -0.91770976
O    1.77055227   0.67497823   0.35765412
O    0.79169469   1.13970935  -1.59955286
O    0.88962159  -0.97395065  -0.87118398
