10
Energy:   -255.29625210
O    0.30157027   0.52723247  -1.75775746
H   -0.33631617   0.73869515  -1.07612980
H    1.12404790   0.39883290  -1.28523661
O    0.05627894  -1.78891153   0.29590852
H   -0.07227817  -1.16842279   1.01333353
H   -0.08452386  -1.27151662  -0.49700316
C   -0.44935558   1.18305397   1.34060088
O    0.79279547   1.47615469   0.84249336
O   -0.36945091   0.07615313   2.14402142
O   -1.30976568   0.93411177   0.30353654
