10
Energy:   -256.02535795
O    0.57379787  -0.62281718  -1.70840974
H    0.20147301  -1.35771151  -1.22103271
H    0.91929124  -0.03799779  -1.03398224
O   -1.63489441   0.72989398   0.18026951
H   -1.16262188   0.39044026  -0.57996840
H   -1.01081192   0.65753701   0.90243110
C    1.04448677  -0.02198588   1.38665452
O    0.17022277   0.65348160   2.19681780
O    1.36178798   0.75861236   0.30633738
O    0.46145320  -1.18460150   0.95517223
