10
Energy:   -253.93412872
O    0.84497506  -0.96850988  -1.51324163
H    1.27570623  -0.70600219  -0.69973551
H   -0.08929268  -0.85834069  -1.33649777
O   -1.89272573   0.61163116   0.05741294
H   -1.43451484   1.43864557  -0.09199188
H   -1.25226036   0.06019994   0.50681206
C    0.97290629   0.17224662   1.42171067
O    0.58458377   1.43623530   1.06324641
O    2.03345089  -0.21657777   0.64636588
O   -0.07126303  -0.69563444   1.23658070
