10
Energy:   -254.11458470
O   -0.16201126   1.55991464  -1.09458570
H   -0.28034782   1.88468553  -0.20197595
H    0.39061407   0.78452636  -0.99655454
O   -1.51623197  -1.08407928   0.25550524
H   -0.71140061  -1.17519458   0.76558008
H   -1.23768178  -0.66725921  -0.55991040
C    1.56967317  -0.56165916   0.67217356
O    1.54153674   0.74634844   1.07872350
O    1.15682104  -0.64339725  -0.63165572
O    0.73299155  -1.30373051   1.46405371
