10
Energy:   -258.16208313
O    0.03689568  -0.21533465   1.69697416
H    0.18390989  -0.89526465   1.03946838
H   -0.09411650   0.58534931   1.18906388
O   -0.37052288   1.66126805  -0.40804842
H   -1.20657518   1.22392085  -0.56921860
H    0.28913513   0.99042751  -0.58427590
C    0.54149597  -1.34541209  -1.10856548
O   -0.68572537  -0.95152533  -1.57304300
O    0.37849448  -2.13313150   0.00050054
O    1.28116815  -0.23982747  -0.77940303
