10
Energy:   -255.22523262
O   -1.71174777   0.60712335   0.16040244
H   -1.42486300  -0.30126135   0.06677444
H   -0.93189418   1.07562546   0.45800285
O    0.11104139  -1.33651903  -1.10923459
H    0.35806338  -1.19821132  -0.19485887
H    0.43279658  -0.55873124  -1.56503235
C    1.37813346   0.64290424   1.00310763
O    1.97357532   0.61623831  -0.23046292
O    0.73622179  -0.54680002   1.22593483
O    0.47001369   1.66806626   1.04938424
