10
Energy:   -254.25213073
O    1.85235446  -0.25067107  -0.21748744
H    1.37595437  -0.55332926   0.55560558
H    1.17229570  -0.09572286  -0.87303529
O   -0.98116405   1.11539049  -1.25765204
H   -0.70139785   1.65432028  -0.51770785
H   -1.05038169   0.23108816  -0.89786022
C   -0.81518751  -0.93857042   1.29809597
O   -1.18728085   0.35692318   1.54345546
O    0.46880157  -1.13503572   1.73383925
O   -0.88409663  -1.18599169  -0.04794060
