10
Energy:   -258.60290609
O   -1.40811955   0.36918905   0.85190448
H   -0.72004929   1.02803364   0.75855047
H   -1.44484161  -0.06209440  -0.00183899
O    0.77346303  -1.23698306   0.81964653
H    1.12584858  -0.85166699   0.01740730
H   -0.00295027  -0.71295284   1.01664038
C    0.61685375   0.73991843  -1.51322061
O   -0.54379777   0.02305679  -1.63953694
O    1.67269997  -0.12187327  -1.37321127
O    0.53644994   1.54762877  -0.40917376
