10
Energy:   -255.32502269
O    0.87761495   1.40740483   1.06904235
H    0.02588984   1.28496947   1.48833433
H    0.75212314   1.09183615   0.17411216
O    0.19570716  -2.16813505   0.07622935
H    0.87116437  -1.80508081  -0.49664152
H   -0.46872755  -1.48114543   0.12917852
C   -0.95580577   0.42154310  -1.12066934
O   -1.28531171   1.75027522  -1.17410318
O   -1.36447630  -0.10226748   0.07754168
O    0.40218429   0.28298172  -1.24085238
