31
Energy:   -189.85833661
C    0.11476200  -2.47119160  -2.23811904
H   -0.12255944  -2.03352354  -1.29100480
H    1.09092060  -2.15572200  -2.54224470
H    0.09490268  -3.53763354  -2.15322917
C   -0.92003046  -2.02026685  -3.28572174
N   -1.69048049  -1.68453288  -4.06570957
C    1.68085063   3.55772201  -0.64742991
H    2.22768193   3.05274348   0.12125233
H    2.20188404   4.44881431  -0.92917056
H    1.58615665   2.91581018  -1.49824207
C    0.28020976   3.92588068  -0.12372736
N   -0.76263103   4.19999154   0.26619299
C    0.51225812  -2.52106545   1.64963030
H    0.31545974  -2.51837129   2.70137330
H   -0.12922559  -1.81504548   1.16493088
H    1.53345513  -2.25215722   1.47716545
C    0.24899691  -3.92811336   1.08173091
N    0.05298696  -4.97572448   0.65890400
C    0.11273443   1.20602311   2.35513034
H   -0.23800996   0.56522755   1.57329940
H    1.14297240   1.44170418   2.18790821
H   -0.46287752   2.10797622   2.36224090
C   -0.03677774   0.49094561   3.71082584
N   -0.14809634  -0.04146210   4.72020276
C   -1.59674168   1.00894032  -1.47699784
H   -1.98915006   0.78734015  -2.44746638
H   -0.52929495   0.93851588  -1.49929103
H   -1.88294367   2.00047769  -1.19443603
C   -2.15637634   0.00216310  -0.45483902
N   -2.57304978  -0.74742832   0.30620469
Cl   2.04201307   0.05196209  -0.48936307
