31
Energy:   -191.09387654
C    0.12549799  -2.10730004  -2.85570842
H    0.94263547  -1.61639033  -2.36971030
H    0.35572302  -3.14481255  -2.98006006
H   -0.75688366  -2.00679966  -2.25888233
C   -0.11195153  -1.46524492  -4.23519490
N   -0.28874349  -0.98720569  -5.26228528
C   -0.99805453   3.25864886   1.34154956
H   -1.44343853   4.15216783   0.95663771
H   -1.67604752   2.44019551   1.21761928
H   -0.09176269   3.05457103   0.81061979
C   -0.68561366   3.44433035   2.83804650
N   -0.45298722   3.58257865   3.95225649
C    1.02237151  -3.14784030   1.02912296
H   -0.02333207  -2.92344287   0.99671916
H    1.58468625  -2.24539073   0.90959895
H    1.26210652  -3.59535697   1.97101204
C    1.37305149  -4.12556991  -0.10783279
N    1.63414867  -4.85353404  -0.95434802
C    0.67465743   0.13016571   3.47042858
H    0.60533876   0.87578190   4.23472670
H   -0.30235272  -0.08135209   3.08883916
H    1.29725914   0.48890226   2.67760182
C    1.28450878  -1.15485146   4.06069309
N    1.73857083  -2.11160516   4.50017185
C   -1.07734659   1.84055125  -2.95417304
H   -1.71422582   1.24724215  -2.33186336
H   -0.05706762   1.56627333  -2.78475778
H   -1.32584017   1.67312503  -3.98136265
C   -1.27151097   3.33019928  -2.61527934
N   -1.41607518   4.43930995  -2.36295757
Cl  -0.20732190   0.04265363  -0.00122781
