31
Energy:   -191.23871399
C   -1.72558412  -0.90114752  -2.92051164
H   -2.25106114  -0.33461850  -3.66065957
H   -0.72164376  -0.53965857  -2.84095926
H   -2.21784424  -0.79757831  -1.97613221
C   -1.70572706  -2.38586454  -3.32894899
N   -1.69094257  -3.49130384  -3.63304916
C    0.74391551   2.83113976   2.14292860
H   -0.07031387   2.16397768   2.33482819
H    1.31712383   2.96079332   3.03708813
H    1.36739255   2.42160358   1.37582001
C    0.19346380   4.19417863   1.68387743
N   -0.21637251   5.20902302   1.34209297
C    0.28029672  -3.51055776  -0.45340731
H   -0.07749153  -4.21378177  -1.17615467
H    0.86879437  -2.76341699  -0.94366263
H   -0.55114996  -3.04629341   0.03450059
C    1.14491086  -4.24195996   0.59018897
N    1.78865538  -4.78652214   1.36719385
C    2.14788266  -1.35714025   2.63354991
H    1.09341829  -1.17647119   2.61447723
H    2.33740140  -2.31782700   3.06489976
H    2.53211121  -1.33234103   1.63522506
C    2.83975711  -0.27018827   3.47702198
N    3.35488910   0.53909689   4.10502527
C   -1.53411300   2.92478773  -1.31396885
H   -0.50202804   2.67010338  -1.43577478
H   -1.97228719   2.29206967  -0.57061810
H   -1.61546264   3.94624082  -1.00588621
C   -2.27181921   2.73185461  -2.65193984
N   -2.82107501   2.58820713  -3.64812006
Cl  -0.06509694  -0.00640518   0.12107529
