31
Energy:   -189.50427382
C   -0.68280717  -0.36504632  -2.01711523
H   -0.91290274  -1.14005391  -2.71805706
H   -0.49356628  -0.79734457  -1.05680007
H    0.18524608   0.16712661  -2.34601433
C   -1.87335686   0.60664209  -1.91704992
N   -2.75977522   1.33010828  -1.84254675
C   -1.68593117   1.72107723   1.55320485
H   -2.31658545   2.37076077   0.98304114
H   -1.35089801   0.91539077   0.93391396
H   -0.84067369   2.26979320   1.91285702
C   -2.47699805   1.15586302   2.74750216
N   -3.06598331   0.73503535   3.63671080
C    2.61617914  -2.55376204  -0.21235190
H    2.87782720  -1.72343968  -0.83444937
H    3.39258839  -3.28887703  -0.25350669
H    2.49494206  -2.21915443   0.79672610
C    1.29664099  -3.17237540  -0.71008334
N    0.31418486  -3.63296116  -1.08066702
C   -0.17904252  -1.68858306   2.47517035
H   -1.12723073  -1.62930984   2.96743654
H   -0.32305168  -1.63610366   1.41620559
H    0.43876929  -0.87439698   2.79188580
C    0.50371925  -3.02124502   2.83495984
N    1.01206643  -4.01347242   3.10283947
C    0.62953979   3.38137470  -1.76981032
H   -0.08460004   2.83799223  -1.18702392
H    0.51145578   4.42983182  -1.59178524
H    1.61849353   3.08163710  -1.49227302
C    0.40396546   3.08584232  -3.26425899
N    0.23601513   2.86580503  -4.37694396
Cl   1.64176954   0.80184499   0.51828348
