31
Energy:   -191.30885851
C    0.78449028  -1.33525838  -3.23837663
H    1.01957765  -2.31232856  -3.60575650
H   -0.22862484  -1.31769177  -2.89459143
H    1.44015030  -1.09133810  -2.42873972
C    0.96060863  -0.30535152  -4.36969187
N    1.09173675   0.46146095  -5.21200750
C   -0.40145153   2.98150709   1.75828316
H    0.50060698   2.53935928   1.38991388
H   -0.47379196   3.98964165   1.40709849
H   -1.24255883   2.42054601   1.40791152
C   -0.38505958   2.97427387   3.29817893
N   -0.37285502   2.96888842   4.44470133
C    0.00422356  -3.61036495   0.32726987
H   -0.06226899  -4.35061943   1.09701154
H   -0.92654225  -3.08771642   0.25369946
H    0.78438744  -2.91773040   0.56496880
C    0.31667787  -4.29405228  -1.01680749
N    0.54931431  -4.80308856  -2.01753418
C   -0.53595177  -0.75258088   3.46587806
H    0.40028369  -0.65869918   2.95641797
H   -0.56065881  -0.07580028   4.29428416
H   -1.33372805  -0.52036755   2.79169035
C   -0.69967010  -2.19597466   3.97716144
N   -0.82156583  -3.27064694   4.35783516
C    0.10072378   2.62667524  -2.36929079
H   -0.81313426   2.11029791  -2.16164175
H    0.92078385   2.08409818  -1.94737764
H    0.23276942   2.70626310  -3.42812449
C    0.04567562   4.03623344  -1.75145960
N    0.00468976   5.08571359  -1.29145619
Cl  -0.29883807  -0.08534890  -0.05944835
