31
Energy:   -191.41861558
C   -1.09242875  -2.71138136  -2.05124425
H   -1.95295119  -2.24184354  -1.62236717
H   -0.20609613  -2.27891783  -1.63616729
H   -1.11295833  -3.75913950  -1.83518754
C   -1.10002889  -2.50160015  -3.57687005
N   -1.10568753  -2.34540850  -4.71276780
C    0.29225545   3.47513867   0.25092510
H    0.85606210   2.66487990  -0.16199495
H    0.18124579   4.24392232  -0.48497412
H   -0.67367621   3.12296549   0.54731868
C    1.03078711   4.04169898   1.47778303
N    1.58065751   4.46352888   2.39123453
C    0.43352336  -3.02456936   1.78035701
H    0.90502684  -3.20334484   2.72408578
H   -0.56407763  -2.67262234   1.94105752
H    0.98865090  -2.28783630   1.23817909
C    0.39174175  -4.33415414   0.97113392
N    0.36063344  -5.30919953   0.36863055
C    1.13711302   0.81020373   3.15238655
H    1.42171982   0.72977832   2.12407196
H    1.51223331   1.72759982   3.55558413
H    0.06995860   0.79680232   3.22920405
C    1.72350488  -0.37512246   3.94152939
N    2.16010027  -1.25765168   4.52908210
C   -1.16418177   1.52400269  -2.99113311
H   -1.49612586   1.08534617  -3.90889875
H   -1.93629890   1.43874685  -2.25528960
H   -0.28757086   1.01472682  -2.64894825
C   -0.83682277   3.01102406  -3.22179206
N   -0.59308912   4.11817905  -3.39352813
Cl  -0.92322021   0.03424746   0.27859969
