31
Energy:   -191.06439497
C   -0.79288184  -2.12944668  -2.68771363
H    0.23395477  -1.88537705  -2.51182508
H   -0.88997236  -3.18625792  -2.82417799
H   -1.38124493  -1.82266764  -1.84830039
C   -1.28421904  -1.40123749  -3.95258482
N   -1.65004193  -0.85905265  -4.89433892
C   -0.10055723   3.38563754   1.18775277
H   -0.47338781   4.31356962   0.80717480
H   -0.86363455   2.63887804   1.11730886
H    0.75032689   3.08125855   0.61482281
C    0.30966468   3.56296299   2.66148058
N    0.61509353   3.69498985   3.75873793
C    0.69113808  -3.38857670   0.97784169
H   -0.17175213  -2.76936534   1.10783387
H    1.50886494  -2.79240648   0.63027451
H    0.95063455  -3.83956350   1.91281312
C    0.38265806  -4.48873574  -0.05467474
N    0.15298066  -5.30785415  -0.82343015
C    1.12439082   0.03088237   3.42342365
H    1.33184411   0.77482145   4.16397612
H    0.13176556   0.16815276   3.04825566
H    1.82515122   0.12224341   2.62000152
C    1.24588061  -1.36889465   4.05387153
N    1.33633528  -2.41109226   4.52326864
C   -0.86801771   2.11356182  -2.86180211
H   -1.46961831   1.67024097  -2.09600610
H    0.14555724   1.78876726  -2.75192303
H   -1.23589073   1.81589299  -3.82146965
C   -0.93149076   3.64749716  -2.74091554
N   -0.97874933   4.78958174  -2.65090999
Cl   0.35521765   0.05158972  -0.08876592
