31
Energy:   -190.98629433
C    0.42171047  -0.88957802  -3.29445330
H    1.12225496  -0.39478218  -2.65467627
H   -0.55996244  -0.81227619  -2.87583436
H    0.43465745  -0.42994543  -4.26061548
C    0.80769194  -2.37450101  -3.42720127
N    1.09507269  -3.48009367  -3.52603817
C    0.12959844   2.85621414   2.08852816
H    0.91355769   2.19187801   1.79025717
H   -0.81829543   2.40394942   1.88394830
H    0.21074626   3.05587512   3.13659764
C    0.24874976   4.17592445   1.30381953
N    0.33746334   5.15850877   0.71956828
C   -0.04460475  -3.51709780  -0.04948156
H    0.76533643  -2.82870672   0.07304672
H   -0.93595302  -2.97888663  -0.29590819
H    0.18677294  -4.20354760  -0.83697767
C   -0.26045070  -4.29451493   1.26224750
N   -0.42115783  -4.87333733   2.23888941
C   -0.61935501  -1.33218398   3.30505810
H   -1.49265616  -1.01361505   2.77519104
H   -0.77152734  -2.32243908   3.68074082
H    0.22119582  -1.32714184   2.64297958
C   -0.35320414  -0.37271321   4.47986854
N   -0.15504273   0.34165639   5.35456831
C   -0.07209690   2.93763123  -2.07627153
H    0.68000503   2.41918736  -1.51908321
H   -1.03701121   2.55849695  -1.81151377
H   -0.02557369   3.98273508  -1.85156591
C    0.16723562   2.72530410  -3.58267026
N    0.34542955   2.56721690  -4.70425259
Cl  -0.52058703   0.07078277   0.03123443
