31
Energy:   -191.20880423
C   -0.27358601  -2.50715974  -2.35773109
H    0.72209552  -2.16036385  -2.17538231
H   -0.29491570  -3.57551094  -2.30232494
H   -0.93399014  -2.09858318  -1.62163960
C   -0.72543684  -2.05670349  -3.75934444
N   -1.06186032  -1.72131833  -4.80290929
C    0.44242514   3.58076658   0.36372877
H    0.30627083   4.44659518  -0.25003259
H   -0.44862856   2.98859327   0.34781762
H    1.26134794   3.00305246  -0.01111910
C    0.74220068   4.01838477   1.80948980
N    0.96539719   4.34421140   2.88592460
C   -0.04186471  -3.11158465   1.57862733
H   -0.09577737  -3.36767670   2.61612936
H   -0.81919354  -2.41531700   1.34225826
H    0.90943514  -2.66861864   1.36956080
C   -0.21465927  -4.38265061   0.72649276
N   -0.34331269  -5.32901700   0.09203983
C    0.59512406   0.52986412   3.51128220
H    1.46589933   0.35269885   2.91524271
H    0.76391089   1.37354042   4.14737999
H   -0.24044972   0.72634155   2.87244562
C    0.30153282  -0.71219634   4.37307683
N    0.08294080  -1.63696682   5.01472211
C   -0.47279766   1.55220791  -3.08925632
H   -1.15159606   1.01501093  -2.46032683
H    0.51842109   1.47261530  -2.69422531
H   -0.49776762   1.13900802  -4.07593836
C   -0.88651205   3.03462544  -3.14290956
N   -1.19454123   4.13835267  -3.18285683
Cl   0.61988808   0.02779843  -0.04022203
