31
Energy:   -190.98218369
C   -1.92082942  -1.58268221  -2.67406015
H   -1.79059561  -0.52685157  -2.55933873
H   -1.76169367  -1.85260081  -3.69715294
H   -1.21628633  -2.09825674  -2.05543181
C   -3.35132318  -1.97176681  -2.25704605
N   -4.41639081  -2.26145799  -1.94656009
C    3.17596806   1.20097619   0.76338521
H    3.65696427   1.57303648   1.64379078
H    2.80805726   0.21337457   0.94827376
H    2.36001064   1.84288831   0.50442305
C    4.18758014   1.16302188  -0.39713212
N    4.94077131   1.13476317  -1.26119003
C    0.01097548   1.24123258   3.35662570
H   -0.36057288   1.80667924   2.52769744
H   -0.70207897   1.26669371   4.15399900
H    0.17127406   0.22759754   3.05372725
C    1.34128499   1.84964488   3.83798947
N    2.33176089   2.30263549   4.19638667
C   -3.40476360  -0.21779951   1.37780532
H   -2.69511858  -1.01569606   1.30950292
H   -3.10804851   0.57990909   0.72933000
H   -4.37082428  -0.57376359   1.08640282
C   -3.46276473   0.29479412   2.82883380
N   -3.50594921   0.67644337   3.90919046
C    2.04031836  -0.60217480  -2.81325695
H    1.41908634   0.25939744  -2.68416685
H    3.04939692  -0.29151791  -2.98689980
H    1.99993919  -1.20641215  -1.93111986
C    1.54022418  -1.41965980  -4.01875439
N    1.16788133  -2.02831454  -4.91630203
Cl  -0.13425365   0.01586644  -0.02895184
