31
Energy:   -191.27326052
C    0.34599243  -1.76545474  -3.15366953
H    1.25088056  -1.45221043  -2.67622252
H    0.41968674  -2.80084231  -3.41336324
H   -0.47756547  -1.62305696  -2.48555700
C    0.12287257  -0.93105315  -4.42865640
N   -0.04325031  -0.30980324  -5.37794208
C   -0.73900265   3.12167838   1.53634931
H    0.24132332   2.91926987   1.15833875
H   -1.03939468   4.10506250   1.24034358
H   -1.42832957   2.40442059   1.14230776
C   -0.72548373   3.02997219   3.07355691
N   -0.71541828   2.96169277   4.21807784
C    0.88029153  -3.33237134   0.66647170
H   -0.05769101  -2.82420515   0.74927300
H    1.65801722  -2.61904737   0.48980606
H    1.08088664  -3.86111847   1.57481479
C    0.82223448  -4.32940524  -0.50577093
N    0.77900837  -5.07174230  -1.37855885
C    0.67905623  -0.30537525   3.42202506
H    0.70569423   0.39698658   4.22879544
H   -0.22906842  -0.18036326   2.87013673
H    1.51516193  -0.13797925   2.77564674
C    0.74437097  -1.73710270   3.98548801
N    0.79300077  -2.80308886   4.40501178
C   -0.98625773   2.37949375  -2.52405561
H   -1.17934925   2.33136850  -3.57538800
H   -1.48024373   1.56716267  -2.03314305
H    0.06762868   2.31266129  -2.35155647
C   -1.51418926   3.71409880  -1.96573881
N   -1.90725828   4.70777293  -1.55004657
Cl   0.41639569   0.13257921  -0.11677442
