31
Energy:   -191.32564303
C   -0.09292661  -2.43006284  -2.51152077
H    0.71772483  -1.82644792  -2.16024673
H    0.18406763  -3.46245548  -2.46316060
H   -0.95389686  -2.26269622  -1.89864416
C   -0.41917038  -2.05382558  -3.96878209
N   -0.66207370  -1.77369984  -5.05377937
C   -0.82278869   3.45365330   0.83151950
H   -1.14030487   4.32924513   0.30481029
H   -1.61378278   2.73308763   0.83506254
H    0.03613537   3.03802680   0.34736749
C   -0.46357046   3.82872363   2.28130724
N   -0.19611617   4.10798054   3.36074012
C    1.04368927  -2.96909588   1.39428326
H    0.00819867  -2.71122355   1.31578956
H    1.64281425  -2.11078058   1.17237518
H    1.25365906  -3.30314837   2.38887901
C    1.36953060  -4.09478780   0.39516109
N    1.61213429  -4.93291661  -0.34873079
C    0.46921289   0.46514939   3.51434953
H    0.43517809   1.31685189   4.16114522
H   -0.52523983   0.19866650   3.22288812
H    1.04487125   0.70115992   2.64382350
C    1.12094951  -0.71681022   4.25584184
N    1.60619706  -1.59683288   4.80791657
C   -0.79761409   1.49518756  -3.14671423
H    0.15116209   1.25014209  -2.71697400
H   -0.84775181   1.11000156  -4.14371826
H   -1.57864727   1.06213343  -2.55734984
C   -0.96687806   3.02552672  -3.17852260
N   -1.09290278   4.16493378  -3.20220538
Cl  -0.52186050  -0.03568608   0.11708874
