31
Energy:   -190.44051791
C    0.45165042  -0.92623249  -3.69276616
H    0.66633119  -1.19795528  -4.70517866
H    1.33676139  -1.02935803  -3.10044633
H    0.11652144   0.08938466  -3.65945753
C   -0.64889430  -1.84846224  -3.13608527
N   -1.46829987  -2.53510420  -2.72161104
C   -0.71129739   3.49550387   1.20961425
H    0.35739764   3.50770657   1.15821178
H   -1.11204811   3.25920260   0.24604813
H   -1.02592292   2.75742627   1.91753467
C   -1.21981322   4.88032076   1.65153486
N   -1.59842636   5.91137989   1.98056485
C    1.82408119  -2.33366721  -0.24387523
H    2.46626449  -1.47816046  -0.21919752
H    1.90481418  -2.86701619   0.68020276
H    0.81211870  -2.01605744  -0.38513761
C    2.24009238  -3.25445587  -1.40606409
N    2.54983163  -3.94002488  -2.27136652
C    0.80813784   0.13826854   2.56796206
H    0.17066229   0.60513108   3.28946360
H    0.23571545  -0.12361616   1.70271753
H    1.58710253   0.81647705   2.28841541
C    1.42836071  -1.13286184   3.17718382
N    1.89014482  -2.07927619   3.63077711
C   -2.23539311  -0.10598451  -0.34343276
H   -1.36813926  -0.73256041  -0.35660764
H   -2.03911153   0.78647596  -0.90010766
H   -3.05898589  -0.62757970  -0.78449113
C   -2.58073178   0.26204829   1.11152190
N   -2.83785212   0.53606545   2.19480178
Cl   1.05892760   1.18298211  -0.88072935
