31
Energy:   -191.14711020
C    0.19566477  -1.83711027  -2.98735322
H    0.95005714  -1.12870347  -2.71541181
H    0.65611161  -2.76972269  -3.23859387
H   -0.47297313  -1.97975525  -2.16426461
C   -0.59045822  -1.30911870  -4.20178129
N   -1.17576252  -0.91600497  -5.10597819
C   -0.67972757   3.26523686   1.39261048
H   -1.06230235   4.19213077   1.01924149
H   -1.38549612   2.48448586   1.19969152
H    0.24511058   3.03862265   0.90453315
C   -0.44440193   3.38105557   2.91011102
N   -0.26919129   3.46728786   4.03995914
C    1.10464931  -3.25165824   0.80417009
H    0.09243491  -2.90481854   0.80911112
H    1.76830331  -2.41434664   0.74610337
H    1.29857926  -3.79881769   1.70300645
C    1.32720197  -4.16845196  -0.41302323
N    1.49290253  -4.85104656  -1.31927899
C    0.92123093  -0.02377507   3.47950559
H    0.90936177   0.67582972   4.28901930
H   -0.06417209  -0.11524539   3.07267249
H    1.59030155   0.32169654   2.71931287
C    1.39359666  -1.39625741   3.99405669
N    1.74529443  -2.41813290   4.37716337
C   -1.53660923   1.87931153  -2.63158759
H   -2.01763837   1.58028155  -3.53938285
H   -1.95183862   1.33238328  -1.81100662
H   -0.48802660   1.67772851  -2.70041952
C   -1.75584248   3.38699053  -2.40699731
N   -1.91907160   4.50952608  -2.23977963
Cl   0.12271137   0.09039844   0.01459058
