31
Energy:   -191.22451712
C    0.27188069  -0.95461652  -2.93503031
H    1.12222319  -0.31716714  -2.81062731
H    0.59027980  -1.97609665  -2.94500234
H   -0.41019733  -0.80152312  -2.12494940
C   -0.42855232  -0.62223878  -4.26563868
N   -0.95005653  -0.37476844  -5.25633710
C    1.04222778   1.62984798   3.24156068
H    0.08891181   1.79234219   2.78364750
H    1.18614327   0.58201620   3.40353593
H    1.81397464   2.00087802   2.59996690
C    1.09642092   2.37006767   4.59090789
N    1.13677018   2.92119488   5.59555823
C    2.64446961  -1.34345859   0.70394436
H    1.95094010  -0.85679530   1.35745475
H    3.00400866  -0.64269839  -0.02032486
H    3.46740175  -1.72079525   1.27429411
C    1.94075787  -2.50938014  -0.01509439
N    1.41681248  -3.37746174  -0.55045142
C   -1.41559366  -0.99269975   0.92350300
H   -1.48879884   0.07467669   0.93927385
H   -2.39365094  -1.41590597   0.82758869
H   -0.81250291  -1.29661856   0.09355482
C   -0.77056028  -1.48240829   2.23335700
N   -0.29030361  -1.84701856   3.20860283
C   -2.16479209   2.03638219  -2.18159059
H   -1.25204225   1.76967480  -2.67215666
H   -1.94260504   2.53160267  -1.25947959
H   -2.72983749   2.69155546  -2.81117043
C   -2.98501129   0.76453216  -1.89656783
N   -3.59570176  -0.18241800  -1.68435543
Cl   0.85698358   1.54929827  -0.34797418
