31
Energy:   -191.14884364
C    0.42321546  -1.70436428  -3.06164967
H    1.13277150  -1.30462529  -2.36764740
H    0.64756068  -2.73386031  -3.24794579
H   -0.56173465  -1.62248940  -2.65168764
C    0.49668781  -0.91582214  -4.38240820
N    0.55139131  -0.32871668  -5.36577297
C   -0.70414247   3.20726098   1.61110335
H   -0.82606201   4.20816696   1.25302092
H   -1.50965272   2.60013397   1.25410320
H    0.22473800   2.81214517   1.25618976
C   -0.70623036   3.20918505   3.15110074
N   -0.70778489   3.21061761   4.29769879
C    0.25021268  -3.41864689   0.64395115
H   -0.66506173  -2.88954160   0.47896468
H    1.05717436  -2.72017010   0.72038482
H    0.17836635  -3.98130334   1.55123000
C    0.50950749  -4.37564444  -0.53440444
N    0.70256426  -5.08817261  -1.41174374
C   -0.06341810  -0.46732629   3.50092999
H   -0.18823221   0.20143907   4.32680802
H   -0.93851095  -0.44159580   2.88574747
H    0.78672036  -0.16748183   2.92451261
C    0.15213696  -1.89843556   4.02729704
N    0.31262751  -2.96396146   4.41920123
C   -0.08188627   2.41976101  -2.71127561
H   -0.97614061   1.97316689  -2.32948633
H    0.76748131   1.86668674  -2.36837233
H   -0.10640150   2.40894745  -3.78093965
C    0.01800089   3.87410223  -2.21477366
N    0.09237142   4.95692537  -1.84510540
Cl  -0.26826984   0.07361951  -0.02903094
