31
Energy:   -191.21529171
C   -2.28530805  -2.16145563   1.53987520
H   -3.08586601  -2.77430446   1.18151304
H   -1.37230319  -2.45330881   1.06433031
H   -2.49276028  -1.13616128   1.31485488
C   -2.14857114  -2.33501878   3.06394175
N   -2.04676429  -2.46424443   4.19867858
C    1.43603499   0.97862075  -3.23761021
H    2.20330853   1.64639776  -3.56967249
H    1.87564220   0.18201971  -2.67451929
H    0.74235018   1.51086549  -2.62083148
C    0.69741515   0.39799543  -4.45782126
N    0.14747911  -0.03430650  -5.36632384
C    0.55081200   0.21269543   3.46861111
H   -0.19757082   0.77468390   2.94996644
H    0.09575067  -0.33586507   4.26667104
H    1.01980501  -0.46844122   2.78964315
C    1.60787447   1.17369851   4.04366937
N    2.39490553   1.88920899   4.47182638
C   -2.12712684  -1.43228804  -2.56114725
H   -2.24663471  -0.45203864  -2.14916525
H   -2.18883922  -1.38070512  -3.62811954
H   -1.17279826  -1.82442388  -2.27762381
C   -3.23982691  -2.35297442  -2.02651170
N   -4.06828268  -3.03846728  -1.62845124
C    2.43385907   2.46399177   0.76439335
H    2.60943811   1.41191312   0.84926213
H    1.38020495   2.64948857   0.74698606
H    2.87081652   2.96718581   1.60150925
C    3.06873985   2.98699948  -0.53752421
N    3.54143745   3.37640250  -1.50686101
Cl  -0.00322139   0.02183634  -0.07354950
