31
Energy:   -191.21335876
C   -0.52292938  -2.40061575  -2.57436654
H   -1.12090072  -2.22425234  -1.70475375
H    0.42255186  -1.91239496  -2.46209558
H   -0.36908218  -3.45271063  -2.69405990
C   -1.24451010  -1.84288907  -3.81527839
N   -1.78175975  -1.42763621  -4.73919366
C   -0.59420577   3.36162024   1.02162917
H   -1.02484975   4.25137406   0.61201460
H   -1.23551986   2.52928087   0.81957351
H    0.36322751   3.19072470   0.57551785
C   -0.42937539   3.52494849   2.54404660
N   -0.30665169   3.64655380   3.67755558
C    1.38886455  -3.10855027   1.03626878
H    0.48748356  -2.55673554   1.20334060
H    2.12439807  -2.46623458   0.59886726
H    1.75399748  -3.48597145   1.96854036
C    1.10204197  -4.28400315   0.08356562
N    0.88848951  -5.15918125  -0.62576519
C    0.83691312   0.22663776   3.34537146
H    0.73219764   1.01978937   4.05589619
H   -0.09099987   0.08245640   2.83245010
H    1.59958405   0.47924472   2.63867360
C    1.22545084  -1.07096175   4.07808828
N    1.51473484  -2.03708358   4.62362926
C   -0.90093553   2.00192633  -2.93788494
H   -1.00773181   1.85938412  -3.99295672
H   -1.53506118   1.31377266  -2.41901281
H    0.11703161   1.83091828  -2.65610800
C   -1.29967424   3.44363374  -2.57170579
N   -1.59655334   4.51705044  -2.29906876
Cl   0.50377394   0.14990456  -0.22277880
