31
Energy:   -191.41640801
C    0.37303348  -1.57200732  -3.07951132
H    1.24927002  -1.06368479  -2.73495666
H    0.61367524  -2.59233361  -3.29381228
H   -0.38177948  -1.53509532  -2.32201941
C   -0.14807086  -0.88822912  -4.35720362
N   -0.53605673  -0.37912517  -5.30850362
C   -0.96201734   2.96381012   1.77447176
H   -1.48589352   3.83042500   1.42888157
H   -1.45744791   2.08336735   1.42195484
H    0.04116511   2.98161728   1.40270976
C   -0.93881034   2.95808292   3.31428624
N   -0.92153167   2.95381877   4.46074811
C    1.25643634  -3.11790706   0.59538578
H    0.28037943  -2.68689603   0.67565151
H    1.98050769  -2.34021409   0.46963434
H    1.47682021  -3.66995691   1.48508854
C    1.30191923  -4.06299982  -0.61965783
N    1.33578330  -4.76666434  -1.52431303
C    0.61926528  -0.33448780   3.41268045
H    0.45190581   0.30895663   4.25105403
H   -0.26205547  -0.36740206   2.80680136
H    1.43680445   0.04033934   2.83299656
C    0.95193621  -1.75266828   3.91237455
N    1.19962483  -2.80856811   4.28441952
C   -1.05924379   2.16719190  -2.69926009
H   -1.11300480   2.10667405  -3.76619379
H   -1.46017442   1.27252965  -2.27061901
H   -0.03832278   2.27991076  -2.39940370
C   -1.87419223   3.37970849  -2.21216404
N   -2.48095839   4.28248220  -1.84949889
Cl   0.55103308   0.32932536  -0.09202166
