31
Energy:   -191.17176763
C   -0.11334757  -1.20798978  -3.37198306
H   -0.14641556  -2.17150986  -3.83613362
H   -0.91966519  -1.12043601  -2.67406809
H    0.81771908  -1.09159320  -2.85772065
C   -0.24529994  -0.11477523  -4.44858444
N   -0.34354448   0.69917269  -5.25016310
C   -0.14154138   2.94708257   1.86325180
H   -0.20303766   3.99328240   1.64741779
H   -0.94286013   2.43418924   1.37363177
H    0.79405544   2.56481656   1.51192522
C   -0.24629294   2.72969683   3.38422864
N   -0.32428523   2.56784325   4.51666504
C    0.10378293  -3.61179990   0.13536107
H   -0.70417690  -2.93860271   0.33260874
H    1.02656458  -3.07017177   0.13188236
H    0.13473647  -4.36425759   0.89545870
C   -0.10602498  -4.27726483  -1.23749619
N   -0.26223651  -4.77273372  -2.25965083
C    0.42019294  -0.93933443   3.49832047
H    0.18425962  -0.33678591   4.35047711
H   -0.35677491  -0.84507220   2.76870777
H    1.34747856  -0.61253412   3.07613328
C    0.54341553  -2.41257181   3.92958353
N    0.63516036  -3.50946400   4.25067848
C   -0.16869691   2.77850211  -2.17611930
H   -0.97141598   2.14759086  -1.85597361
H    0.76468683   2.34271209  -1.88666992
H   -0.19914481   2.88194521  -3.24067158
C   -0.31293439   4.16487625  -1.52131989
N   -0.42032575   5.19709482  -1.03379195
Cl   0.35596889  -0.05190780  -0.01598555
