31
Energy:   -191.27447825
C   -0.93298745  -2.93613821  -1.81697021
H   -1.18582093  -3.95565492  -1.61310487
H   -1.52265734  -2.29195184  -1.19873690
H    0.10470194  -2.77768797  -1.60962186
C   -1.21390992  -2.62399242  -3.29860700
N   -1.42306946  -2.39158569  -4.40175294
C    0.56275047   3.43361891  -0.33422177
H    1.38283259   2.77364204  -0.52604470
H    0.49903909   4.16024235  -1.11707445
H   -0.34642054   2.87078655  -0.29514622
C    0.78266903   4.14775679   1.01234531
N    0.94640840   4.67946490   2.01492572
C    0.08115861  -2.75782436   2.35114397
H   -0.59139753  -1.97980796   2.05574780
H    1.06443776  -2.53422240   1.99328455
H    0.09768221  -2.82874858   3.41866251
C   -0.38983271  -4.09733059   1.75491395
N   -0.74050715  -5.09465387   1.31099360
C    1.00692003   1.15596976   3.15326082
H    1.70187963   0.65349395   2.51337849
H    1.40646580   2.10728032   3.43658129
H    0.08220462   1.29783900   2.63395975
C    0.76254899   0.30579607   4.41385096
N    0.58060364  -0.32719689   5.35241761
C   -0.49817891   1.01178081  -3.40760565
H   -1.24396460   0.72230027  -2.69703905
H    0.47313841   0.80311714  -3.01023776
H   -0.63784741   0.46238111  -4.31510318
C   -0.62175783   2.51946367  -3.69608555
N   -0.71376796   3.64200209  -3.91087195
Cl   0.52667847  -0.15014004  -0.16724228
