31
Energy:   -190.69061328
C    0.16821712   0.43679469  -2.11283958
H    0.94926151  -0.29454822  -2.11012160
H   -0.73835203  -0.01085912  -2.46303599
H    0.02270413   0.80691098  -1.11949222
C    0.55830959   1.60097992  -3.04240971
N    0.84875116   2.46776874  -3.73451693
C    3.04532865   2.33462224  -0.22984568
H    3.68142321   3.16295857  -0.46253177
H    3.08074013   2.14220954   0.82211557
H    2.04054557   2.56491522  -0.51668219
C    3.52499933   1.08791562  -0.99616066
N    3.88213595   0.15968588  -1.56671700
C   -3.02402757   1.54460328   0.31745160
H   -2.64315699   2.05403188   1.17787027
H   -3.34774485   2.26192390  -0.40750174
H   -2.25415544   0.93318520  -0.10487993
C   -4.21432810   0.65898485   0.73032524
N   -5.10056095  -0.00039833   1.03772843
C    1.90752097  -1.75647160   0.75030813
H    2.75290301  -1.86287588   0.10307748
H    2.17503815  -1.14892683   1.58948809
H    1.10507912  -1.29271508   0.21559693
C    1.46069364  -3.14520446   1.24362989
N    1.12801038  -4.17917921   1.61093036
C   -1.88709592  -1.94805333   1.77961161
H   -2.89238224  -1.79793048   2.11392094
H   -1.27613230  -1.13401338   2.10970480
H   -1.50977914  -2.86402948   2.18398622
C   -1.86262006  -2.01740619   0.24136874
N   -1.84439667  -2.06904255  -0.90392299
Cl   0.26307063   1.30416363   1.74354368
