31
Energy:   -191.14319651
C    0.33635420  -2.13210009  -2.79414037
H    0.99955960  -1.33002842  -2.54566541
H    0.90682163  -2.99146728  -3.07866460
H   -0.26860402  -2.37090440  -1.94449506
C   -0.56852649  -1.70593693  -3.96511258
N   -1.24225129  -1.38863908  -4.83695461
C   -0.95829463   3.30043794   1.15064787
H   -1.44074819   4.16694168   0.74901369
H   -1.53786050   2.43082824   0.92090570
H    0.01652353   3.20330139   0.72030715
C   -0.83278977   3.44471247   2.67872947
N   -0.73934570   3.55213142   3.81645568
C    1.41105413  -2.97951798   1.00060303
H    0.40820714  -2.60652210   1.00909783
H    2.07936279  -2.19904500   0.70206567
H    1.67381588  -3.31853373   1.98087018
C    1.51435894  -4.15172372   0.00719383
N    1.59127406  -5.02448417  -0.73244447
C    0.81417087   0.26129498   3.47795427
H    0.63972646   0.99957373   4.23254941
H   -0.09529660   0.07229534   2.94687315
H    1.55803928   0.61709145   2.79606884
C    1.30358012  -1.04133961   4.13766764
N    1.66796755  -2.01121027   4.62885422
C   -1.37701039   1.69461114  -2.90809700
H   -1.53900043   1.40147193  -3.92432965
H   -1.79730479   0.95983244  -2.25361096
H   -0.32622492   1.77706651  -2.72384150
C   -2.05130287   3.05537284  -2.65264201
N   -2.55334426   4.06852178  -2.46244415
Cl   0.40708866   0.24596750  -0.13341527
