31
Energy:   -191.69867466
C    0.84035228  -0.68708330  -3.24738042
H    1.39110313   0.22609125  -3.33504976
H    1.18065293  -1.38126292  -3.98711633
H    0.99081752  -1.10217980  -2.27272448
C   -0.65865593  -0.40484315  -3.45931173
N   -1.77473568  -0.19470252  -3.61710422
C   -0.04041006   1.41090672   2.72946393
H   -1.03581076   1.09245824   2.49996842
H    0.63120892   0.58436157   2.62626443
H    0.24841048   2.19129793   2.05680402
C    0.00990799   1.93566261   4.17642604
N    0.04737207   2.32636721   5.25375511
C    2.55312498  -2.06698371   0.83223544
H    1.83638091  -1.44746610   1.32960455
H    3.27169773  -1.45097524   0.33315041
H    3.05043866  -2.68448884   1.55075171
C    1.83473186  -2.95647349  -0.19942306
N    1.29985552  -3.61873906  -0.96753970
C   -1.33525044  -1.17894215  -0.00441870
H   -0.64886719  -0.37183863  -0.15395837
H   -2.33793857  -0.81132453  -0.07054647
H   -1.17839412  -1.92439867  -0.75581059
C   -1.10576329  -1.79676344   1.38742630
N   -0.93489967  -2.25675947   2.42371817
C   -1.30402955   2.71919410  -1.14041179
H   -0.92158190   1.86917423  -1.66586416
H   -0.50270133   3.21590407  -0.63439659
H   -1.75903376   3.39327501  -1.83574278
C   -2.35291783   2.25752280  -0.11167811
N   -3.13386283   1.91378754   0.65426088
Cl   1.83879795   1.19922172  -0.39535213
