31
Energy:   -191.08636930
C   -0.57343992  -1.13418415  -3.64933787
H   -0.39074604  -0.08000183  -3.63441206
H   -0.61177607  -1.47521001  -4.66281248
H    0.21498057  -1.64015949  -3.13234543
C   -1.91594563  -1.43237060  -2.95625544
N   -2.91550216  -1.65438396  -2.44022407
C    1.33726616   3.66547506   0.62778892
H    1.07586603   4.64209955   0.27739664
H    0.47217206   3.03609175   0.60809298
H    2.09457406   3.25068307  -0.00413785
C    1.86861945   3.76269790   2.06994405
N    2.26423613   3.83508472   3.14369409
C    0.35445227  -2.90674496  -0.26220115
H    0.19082103  -3.33451343   0.70482477
H   -0.37335050  -2.14335623  -0.44231191
H    1.33530143  -2.48106449  -0.30257639
C    0.22576105  -4.00245084  -1.33666250
N    0.12994458  -4.81825367  -2.13664782
C    1.29999547   0.24400938   2.46400805
H    1.68887970   0.71249510   3.34388893
H    0.69611489   0.94356336   1.92470147
H    2.11017295  -0.07970638   1.84455696
C    0.44337803  -0.97118806   2.86538285
N   -0.19441259  -1.87595780   3.16422463
C   -2.00856025   0.50290743   0.17167700
H   -1.33189803  -0.23719591   0.54487328
H   -1.66600461   0.85183704  -0.78005976
H   -2.98288114   0.07378768   0.06465302
C   -2.07317843   1.68351892   1.15837907
N   -2.12128961   2.56253785   1.89302362
Cl   1.35644911   0.49995304  -1.13112560
