31
Energy:   -190.42530450
C   -0.73430832  -2.34475261  -0.30364302
H   -0.62641389  -1.41367283   0.21244749
H   -0.34975400  -2.24832049  -1.29748301
H   -0.19130777  -3.10592958   0.21660606
C   -2.22458390  -2.72807647  -0.36481082
N   -3.33416181  -3.01347851  -0.41035302
C   -0.48684253   3.70587709  -0.05017136
H   -0.18647158   3.56478412  -1.06740794
H   -0.40471832   2.77885320   0.47782619
H    0.14544184   4.43591301   0.41044032
C   -1.94736905   4.19246178  -0.00896932
N   -3.03479744   4.55474620   0.02170747
C    3.10690345  -1.91567346  -1.18069744
H    2.55367915  -1.83033603  -2.09259687
H    3.30803664  -0.93895004  -0.79281099
H    2.53527489  -2.47193694  -0.46745777
C    4.43637161  -2.64364486  -1.45304287
N    5.42622109  -3.18565266  -1.65581643
C    1.35665691   0.38957295   1.88255755
H    1.41246081   0.92183201   2.80910296
H    0.37880084   0.50437958   1.46361120
H    2.08425884   0.78042820   1.20231738
C    1.63652038  -1.10425998   2.13103214
N    1.84489146  -2.21648649   2.31603276
C   -3.05116137   0.77199215  -0.56699184
H   -3.70076597  -0.05876575  -0.74797624
H   -2.18911399   0.69435023  -1.19607461
H   -3.56899824   1.68322135  -0.78241096
C   -2.61162137   0.76791994   0.90894448
N   -2.28436387   0.76488799   2.00784616
Cl   0.70123551   0.70871690  -1.62175764
