31
Energy:   -191.42326961
C    0.16320584  -1.99595939  -2.87315596
H    0.88935268  -1.27432450  -2.56194218
H    0.64507738  -2.93583944  -3.04439965
H   -0.57752999  -2.10885740  -2.10930809
C   -0.50933294  -1.51935992  -4.17398052
N   -1.01006863  -1.16450996  -5.14250354
C   -1.17240881   3.10995781   1.40949706
H   -1.72304629   3.94930012   1.03908779
H   -1.79421795   2.23936857   1.39141752
H   -0.31290140   2.94722150   0.79332907
C   -0.72200949   3.38914916   2.85545440
N   -0.38666672   3.59701981   3.93203537
C    1.53444841  -3.01390984   0.88346470
H    0.49488855  -2.82164480   1.04853930
H    2.02495631  -2.10543476   0.60244134
H    1.97408422  -3.39336637   1.78214829
C    1.69192618  -4.05202088  -0.24309032
N    1.80917554  -4.82494173  -1.08186174
C    1.04858526   0.20870482   3.37854690
H    0.98160608   0.96135804   4.13612666
H    0.06413638  -0.09390549   3.08839780
H    1.56550260   0.60303813   2.52872527
C    1.81788249  -1.00656787   3.92890499
N    2.39065924  -1.91139364   4.33867162
C   -1.57353120   1.73078020  -2.75169507
H   -1.63827485   1.51566187  -3.79784637
H   -2.10726282   0.98497743  -2.20050738
H   -0.54683772   1.73043613  -2.45036556
C   -2.18984640   3.11428593  -2.47300623
N   -2.64872108   4.14436883  -2.26550972
Cl  -0.18283087  -0.00359236   0.03238424
