31
Energy:   -190.95849918
C   -0.83179726  -3.46311532   0.79517979
H   -0.02774512  -2.83041544   1.10837492
H   -1.25167906  -3.95474283   1.64776455
H   -1.58510406  -2.87237513   0.31721120
C   -0.30051575  -4.51638024  -0.19475605
N    0.09504748  -5.30058384  -0.93180829
C    0.82315203  -2.09182379  -2.73168789
H    0.99328582  -3.13913179  -2.86989285
H   -0.22527750  -1.91324982  -2.61418916
H    1.34192439  -1.75855197  -1.85721420
C    1.34059788  -1.32115708  -3.96047697
N    1.72585983  -0.74736069  -4.87536631
C   -1.10712630   0.06849912   3.37405835
H   -0.07626119   0.14350331   3.09730634
H   -1.34401435   0.83769912   4.07912183
H   -1.71921412   0.18160448   2.50373957
C   -1.36891131  -1.30931346   4.01021958
N   -1.56382215  -2.33515755   4.48387053
C    0.94884608   2.08502339  -2.60925629
H    1.45208381   1.52277295  -1.85062172
H    1.37439789   1.85643987  -3.56400983
H   -0.09038134   1.83027009  -2.61174872
C    1.10779436   3.58989010  -2.32340384
N    1.22613857   4.71033177  -2.11057370
C   -0.05416534   3.35740789   1.11800073
H    0.01074060   4.27872369   0.57775580
H   -0.93559962   2.82977566   0.81870668
H    0.80798962   2.75942890   0.90821739
C   -0.11983367   3.65144108   2.62824314
N   -0.16872672   3.87036216   3.75268727
Cl  -0.47768348  -0.01981462  -0.11545184
