31
Energy:   -190.59290907
C    1.26040475   0.05114477  -3.53323811
H    0.82455207   1.01915552  -3.39949282
H    2.07031308  -0.07349924  -2.84518909
H    0.52081293  -0.70093178  -3.35356094
C    1.78650452  -0.08024511  -4.97461097
N    2.17820972  -0.17807084  -6.04777859
C   -1.98846298   2.12712632   1.83687063
H   -3.01616608   2.31832673   1.60846545
H   -1.70295242   1.17961765   1.42991838
H   -1.37922881   2.89656094   1.41060407
C   -1.79710199   2.10823412   3.36481829
N   -1.65462504   2.09416803   4.50244478
C    1.48193907  -2.05656811   0.07008076
H    2.20886845  -1.39018053  -0.34513176
H    1.97837621  -2.82517696   0.62477860
H    0.82937503  -1.51226614   0.72030737
C    0.66040872  -2.69283497  -1.06651607
N    0.04874203  -3.16656456  -1.91276408
C    1.49038985   0.51043446   3.16902326
H    2.19776239   1.07875771   2.60198450
H    1.29952755   1.00423792   4.09887745
H    0.57778877   0.42414001   2.61710695
C    2.06046560  -0.89403703   3.44118767
N    2.48491291  -1.93972990   3.64382645
C   -2.07929438  -0.24191798  -1.44326915
H   -1.41544372  -0.56839691  -0.67021418
H   -1.67316575   0.62615711  -1.91908872
H   -2.19687370  -1.02248365  -2.16562047
C   -3.45004086   0.10202009  -0.83141893
N   -4.47062392   0.35809761  -0.37586862
Cl   0.86462599   1.44472473  -0.25653210
