31
Energy:   -190.99994220
C    0.45376117  -3.48761302   0.14963035
H    1.34219798  -2.89738464   0.23454593
H    0.42479622  -4.20477040   0.94319536
H   -0.40436065  -2.85152659   0.21224094
C    0.45181810  -4.22042043  -1.20483985
N    0.45037139  -4.76602885  -2.21330448
C   -0.45699474   3.11457813   1.86329010
H   -0.83458236   4.08242736   1.60717364
H   -1.12923164   2.36318296   1.50495793
H    0.50437585   2.97650982   1.41428808
C   -0.32968699   3.00176106   3.39386681
N   -0.23490058   2.91776363   4.53345073
C    0.67610701  -0.94061518   3.49037734
H   -0.22511304  -0.72471170   2.95550512
H    1.51686334  -0.59111395   2.92834816
H    0.65324915  -0.44939210   4.44068071
C    0.79602803  -2.46137201   3.70136927
N    0.88531468  -3.59364460   3.85846236
C    0.29672385  -1.26642101  -3.26166057
H   -0.47110139  -1.28987225  -2.51681521
H    1.21963638  -0.96323607  -2.81309570
H    0.41047089  -2.24143269  -3.68746913
C   -0.09019729  -0.26573867  -4.36643516
N   -0.37827768   0.47931482  -5.18899005
C   -0.80073179   2.58213774  -2.18628975
H   -1.35132779   1.75752253  -1.78410326
H    0.22342433   2.50781836  -1.88549089
H   -0.86094578   2.56417907  -3.25444276
C   -1.39564230   3.90178099  -1.66072035
N   -1.83858022   4.88431537  -1.26941004
Cl   0.49653586   0.08200233   0.06168435
