31
Energy:   -190.98816363
C    0.34261389  -2.40538988  -2.50006084
H   -0.56618709  -1.94149980  -2.17790100
H    1.11737288  -2.20315748  -1.79030760
H    0.19588396  -3.46253010  -2.57637569
C    0.74671629  -1.84261560  -3.87541038
N    1.04758889  -1.42360458  -4.89942064
C    0.26523104   3.57099327   0.61869349
H    1.10496184   2.94364951   0.40376982
H    0.36541855   4.49503938   0.08859885
H   -0.63462638   3.07979000   0.31230312
C    0.20757321   3.85092969   2.13193874
N    0.16464434   4.05935508   3.25861861
C   -0.91656882  -3.18496048   1.31994074
H   -1.62710438  -2.45857520   0.98467395
H    0.05256591  -2.73526089   1.37865402
H   -1.20241476  -3.54379032   2.28660114
C   -0.87735377  -4.36119890   0.32670090
N   -0.84815639  -5.23696187  -0.41281130
C   -0.70098659   0.26089879   3.55460682
H    0.25782676   0.16779007   3.08887308
H   -0.68468446   1.07901844   4.24403671
H   -1.44498117   0.43955865   2.80664172
C   -1.03362848  -1.03971395   4.30916356
N   -1.28129549  -2.00807926   4.87096535
C    0.89288198   1.79245096  -2.96922835
H   -0.08238948   1.64324141  -2.55512416
H    1.61468629   1.26565329  -2.38068621
H    0.91412864   1.42396474  -3.97355179
C    1.22710648   3.29574340  -2.96681454
N    1.47595182   4.41501295  -2.96501735
Cl  -0.09277549   0.06424870   0.05792922
