31
Energy:   -191.10046686
C    2.55907520   1.38105281  -2.04812490
H    2.71552740   2.32573926  -2.52560831
H    2.45997803   1.52691187  -0.99275578
H    1.66709372   0.93112041  -2.43130758
C    3.76031551   0.45904719  -2.32835223
N    4.65469352  -0.22742791  -2.53699420
C   -0.70092898   3.40351302  -0.55447354
H   -0.23377820   3.01290826   0.32535499
H   -1.12266527   2.59980376  -1.12112073
H   -1.47510430   4.08674438  -0.27385535
C    0.34794370   4.13909129  -1.40910252
N    1.12887710   4.68676275  -2.04541264
C   -3.18522156   0.72753606   1.48574473
H   -3.07004617   0.33234643   0.49809096
H   -3.94097512   0.17585132   2.00476265
H   -2.25791814   0.64522528   2.01322212
C   -3.59789231   2.20879592   1.40105675
N   -3.90514444   3.31166123   1.33800270
C   -1.22485965  -2.92156536   1.73447027
H   -1.44737251  -2.76606198   0.69947901
H   -0.91160203  -3.93372890   1.88378113
H   -0.44114515  -2.25771197   2.03445253
C   -2.48342951  -2.64406724   2.57743925
N   -3.42049198  -2.43745728   3.20506797
C    2.40354589  -2.64052413  -0.70457090
H    2.54056027  -1.88298523   0.03857246
H    1.51045497  -2.43937947  -1.25849195
H    3.24219351  -2.64412044  -1.36906796
C    2.28470506  -4.01513826  -0.02052935
N    2.19622266  -5.03860097   0.48877068
Cl  -0.05261122  -0.10534209  -0.10850023
