31
Energy:   -191.00507745
C    1.20170064  -1.86376626  -2.73330234
H    1.76441311  -1.31686402  -2.00587344
H    1.63283188  -2.83463496  -2.86151664
H    0.18992410  -1.96400915  -2.39989766
C    1.22751056  -1.10929533  -4.07557930
N    1.24672723  -0.54755743  -5.07496552
C   -1.09560099   3.25676077   1.18969006
H   -1.18914350   4.23178583   0.75902069
H   -1.77493958   2.58646415   0.70585060
H   -0.09368978   2.90423025   1.06009358
C   -1.42523375   3.32556013   2.69242386
N   -1.67066033   3.37678439   3.81127749
C    0.56505187  -3.27360481   1.06441423
H   -0.40841887  -2.92690123   0.78683267
H    1.23629136  -2.44242683   1.12340414
H    0.51287756  -3.75822015   2.01695026
C    1.07513188  -4.27139169   0.00808107
N    1.45490962  -5.01428937  -0.77840698
C   -0.67500697  -0.21872839   3.47444528
H   -1.02388066   0.48447065   4.20156181
H   -1.46166285  -0.43626859   2.78252919
H    0.15853768   0.19676749   2.94769527
C   -0.24037364  -1.51571985   4.18191049
N    0.08323062  -2.48138895   4.70865050
C   -0.16446414   2.08581344  -3.02973827
H   -1.03112040   1.61488755  -2.61496616
H    0.71600482   1.63975526  -2.61657292
H   -0.16363443   1.95891719  -4.09218627
C   -0.18553829   3.58822344  -2.69221779
N   -0.20122896   4.70683598  -2.44091844
Cl  -0.26054579   0.01781050  -0.09868946
