31
Energy:   -190.96298231
C   -1.11078642   0.63513932  -3.41275102
H   -1.09011663   1.50706853  -2.79290233
H   -1.00607055  -0.23818003  -2.80345061
H   -2.04160261   0.59349285  -3.93881745
C    0.04843351   0.69707999  -4.42466628
N    0.91152545   0.74319763  -5.17808319
C   -3.62411955   0.23052273   0.06029275
H   -4.42718585   0.18243836   0.76575189
H   -2.93097639   0.98855104   0.36003384
H   -3.12467574  -0.71504331   0.02341663
C   -4.18473915   0.56964301  -1.33337260
N   -4.60214592   0.82213348  -2.37101980
C   -0.99711836  -0.78862010   3.33133124
H   -0.59824039   0.11348981   2.91660934
H   -0.84865421  -1.59393138   2.64261414
H   -0.49761710  -1.00953095   4.25143774
C   -2.50379297  -0.60999097   3.59519346
N   -3.62558069  -0.47699345   3.79165087
C    2.78709978  -0.26327039   2.11035187
H    2.21228597   0.61991574   1.92468674
H    2.40158129  -1.06988545   1.52243459
H    3.80873541  -0.08596823   1.84629948
C    2.69886863  -0.62865869   3.60377299
N    2.63317654  -0.90070690   4.71569290
C    2.83874311   0.15291844  -2.12011177
H    2.27169427   0.98580460  -1.76003338
H    2.28847864  -0.75022340  -1.95749894
H    3.02457341   0.27378163  -3.16689651
C    4.17938471   0.08008133  -1.36580755
N    5.17755332   0.02585079  -0.80419377
Cl  -0.06871151  -0.09010601  -0.03196526
