43
Energy:   -477.92907022
C   -1.43742820   6.23323693  -0.03387963
H   -2.45077949   6.32129631  -0.36594122
H   -0.77631748   6.50595050  -0.82978102
H   -1.27787591   6.88330893   0.80089492
C   -1.16010062   4.77837327   0.38809327
N   -0.95361764   3.69516114   0.70227128
C   -2.27018762   1.55301819   3.18722923
H   -2.98873278   2.07891533   2.59391209
H   -1.64184330   2.25622335   3.69278340
H   -2.77796128   0.94619030   3.90752425
C   -1.40954982   0.65740662   2.27685432
N   -0.76876586  -0.00941691   1.59903881
C    2.31571736   2.64714629   1.43876112
H    1.55256639   2.67129005   2.18837292
H    2.43559749   3.62456541   1.02021638
H    3.23854496   2.33215397   1.87929280
C    1.91336392   1.65899615   0.32823377
N    1.61379349   0.92327345  -0.49860432
C    2.48366047  -3.99305554   3.16088613
H    3.01099555  -4.76844879   2.64553847
H    1.59892446  -4.39826968   3.60579375
H    3.11059328  -3.58188912   3.92429724
C    2.09573537  -2.88563378   2.16352404
N    1.80690749  -2.06110794   1.42094262
C   -3.00314328  -4.83202171  -0.65264014
H   -2.76767292  -5.80638688  -0.27838566
H   -3.14737501  -4.88198720  -1.71169620
H   -3.89909159  -4.47800332  -0.18697214
C   -1.84496083  -3.86727142  -0.33725101
N   -0.98264136  -3.14897098  -0.10242948
C   -1.70186915   2.26859795  -2.91336214
H   -2.74892472   2.48810192  -2.93318207
H   -1.32740065   2.22580660  -3.91478179
H   -1.18697627   3.03490586  -2.37247714
C   -1.47490703   0.91135090  -2.22200938
N   -1.30592341  -0.09918123  -1.70726582
C    3.28841397  -2.96246884  -3.97751058
H    4.24831442  -2.50417738  -3.86149228
H    2.88585177  -2.70937055  -4.93604280
H    3.38905570  -4.02506005  -3.90220954
C    2.34141298  -2.45700036  -2.87329559
N    1.63632770  -2.08065610  -2.05115734
Na   0.33826946  -1.14489161  -0.26209353
