43
Energy:   -477.64048603
C   -2.43611572   2.43396721  -1.66123073
H   -3.07904957   1.58006588  -1.61235570
H   -1.98971392   2.48921530  -2.63209230
H   -3.00664684   3.32084405  -1.48000492
C   -1.33211622   2.30699095  -0.59508716
N   -0.51013840   2.21245135   0.19870519
C   -2.22777560   0.43863556   5.51415672
H   -1.94911943   1.17703682   6.23666242
H   -2.11914146  -0.53661393   5.94075507
H   -3.24667331   0.58974638   5.22448091
C   -1.31873148   0.56203355   4.27722029
N   -0.64190682   0.65390897   3.35626490
C    3.20157184   4.01771874   2.70463640
H    4.04469219   4.32375103   2.12120474
H    3.48488189   3.95342093   3.73444235
H    2.41364170   4.73336831   2.59549951
C    2.71438366   2.63979892   2.21926577
N    2.35164992   1.61387498   1.85788528
C   -3.01061034  -0.31414538  -5.83059723
H   -2.50906075   0.39567377  -6.45470056
H   -3.96409755   0.07603165  -5.54159358
H   -3.14776558  -1.22846185  -6.36921855
C   -2.16275548  -0.58138582  -4.57308991
N   -1.53148899  -0.78035849  -3.63681855
C   -1.70378136  -3.16390513  -1.21515405
H   -2.68635530  -3.17693672  -1.63856734
H   -1.54648489  -4.05956473  -0.65128279
H   -0.97825379  -3.10408059  -1.99932868
C   -1.56021582  -1.94216958  -0.28868162
N   -1.45332476  -1.03253192   0.40111921
C    2.08764720  -0.52525809  -3.52087885
H    1.60223059   0.25717202  -4.06592382
H    1.77855200  -1.47395995  -3.90730353
H    3.14812966  -0.42665839  -3.62361220
C    1.70484759  -0.42786075  -2.03239700
N    1.41983588  -0.35534400  -0.92415461
C    3.72014794  -3.07397286   2.91791832
H    4.28578325  -2.47672347   3.60220630
H    4.31462085  -3.28602679   2.05389623
H    3.44031237  -3.99137086   3.39223053
C    2.45321110  -2.30799771   2.49394532
N    1.50991903  -1.73769439   2.17827816
Na   0.43526477   0.22731502   1.23330007
