43
Energy:   -477.93038275
C   -0.73855519   3.81797518   0.98960793
H   -1.58336259   4.39221020   0.67108824
H    0.05756594   3.93326573   0.28405968
H   -0.41601736   4.16087783   1.95048576
C   -1.13269745   2.33204766   1.08055459
N   -1.42615427   1.22570708   1.14826852
C   -1.98633213   0.08177807  -3.46071485
H   -2.63394338   0.88860418  -3.18771032
H   -2.55953847  -0.69541033  -3.92148785
H   -1.24675661   0.43513252  -4.14851407
C   -1.29370205  -0.46944532  -2.20054964
N   -0.77800747  -0.87985618  -1.26229936
C   -0.09972436   4.73478059  -4.64732349
H   -0.88746872   5.40087721  -4.36329127
H   -0.30008449   4.34031909  -5.62156937
H    0.82888098   5.26617834  -4.66173298
C   -0.01408994   3.57901150  -3.63319107
N    0.04966878   2.71848887  -2.87812340
C   -4.34223046  -2.86229997   2.81808749
H   -4.96821369  -3.20037922   2.01887062
H   -4.77871958  -1.99692470   3.27141074
H   -4.24672765  -3.63797315   3.54891539
C   -2.95051468  -2.50482190   2.26406889
N   -1.91431902  -2.23866323   1.85157685
C    1.69226044  -5.41062289   0.14301126
H    2.64555141  -5.48129910  -0.33776039
H    0.93388249  -5.78625451  -0.51171224
H    1.70351757  -5.98773099   1.04396554
C    1.39552900  -3.93766636   0.48057538
N    1.17459896  -2.84098328   0.73190722
C    2.95344368   1.15377127  -2.00614075
H    2.77839656   0.36061087  -2.70267162
H    4.00370355   1.24037371  -1.82079426
H    2.58599931   2.07287623  -2.41250241
C    2.22263548   0.84786194  -0.68555797
N    1.67851555   0.62009854   0.29767593
C    2.65323820  -0.87851621   5.16965360
H    2.64514452  -1.90032919   5.48703807
H    2.45023641  -0.24347116   6.00655690
H    3.61405613  -0.63846656   4.76455586
C    1.57419640  -0.66735120   4.09137806
N    0.77080073  -0.51012925   3.28855291
Na  -0.11466256  -0.83425191   1.06178187
