43
Energy:   -477.60292330
C   -4.65816915   0.02870945   4.78162774
H   -4.08319339  -0.33421837   5.60781565
H   -5.45287096  -0.65636885   4.57182821
H   -5.06803877   0.98648955   5.02568360
C   -3.75202042   0.15856770   3.54322905
N   -3.07735150   0.25525307   2.62118494
C   -3.56756641  -1.04873119  -1.03781659
H   -3.35360220  -1.60666374  -0.15021827
H   -4.06002331  -1.68117826  -1.74661557
H   -4.20274109  -0.22250871  -0.79531171
C   -2.25256605  -0.52461623  -1.64418080
N   -1.27348851  -0.13438881  -2.09564651
C   -0.07179039  -1.48411319   3.41701215
H   -0.46350572  -0.54460978   3.74684940
H    0.93088301  -1.59725527   3.77302341
H   -0.67818697  -2.27783929   3.80065411
C   -0.07835554  -1.53108363   1.87774262
N   -0.08324359  -1.56605525   0.73168649
C    5.10543107   1.77238904   0.48671119
H    4.82149503   2.73707451   0.85230994
H    5.54102255   1.87339651  -0.48537762
H    5.81848567   1.33404264   1.15327302
C    3.86089283   0.86947738   0.40025260
N    2.93427753   0.19721861   0.33588025
C    1.86560967   2.02392083  -5.30937097
H    1.86799158   3.09290962  -5.35581963
H    1.00277460   1.64676113  -5.81747066
H    2.74962711   1.64458822  -5.77789956
C    1.83169468   1.57415870  -3.83690237
N    1.80644343   1.23929035  -2.74058256
C    2.56886311  -4.51281750  -2.88070589
H    3.58888234  -4.44974712  -3.19769656
H    1.96078188  -4.83916531  -3.69840596
H    2.48836325  -5.21225956  -2.07497661
C    2.09183910  -3.12721862  -2.40724645
N    1.73667304  -2.09557727  -2.05473437
C   -1.90760671   3.34769982   1.42680738
H   -2.88936599   2.99285707   1.19199782
H   -1.77526727   4.32760718   1.01794687
H   -1.78654889   3.38520067   2.48927516
C   -0.85930803   2.39409915   0.82405069
N   -0.07880200   1.68410011   0.37527094
Na   0.90158140  -0.11939535  -0.94513459
