43
Energy:   -477.68069166
C   -2.75515280  -0.01999561  -5.20505689
H   -3.72032330   0.43612464  -5.27786082
H   -2.85694033  -1.08295926  -5.27322343
H   -2.13387206   0.33067891  -6.00251329
C   -2.11370955   0.34869673  -3.85442130
N   -1.63612588   0.62320494  -2.84881171
C    1.30985882   0.60882336   3.60855880
H    0.59681169  -0.14175394   3.87892463
H    1.06339839   1.52776888   4.09814584
H    2.28812384   0.29602164   3.90864500
C    1.28286207   0.81670001   2.08289223
N    1.26276175   0.97147362   0.94696412
C    0.17161892  -4.13003156   5.41147465
H   -0.41415930  -5.02367683   5.35524125
H   -0.15120481  -3.54390967   6.24642678
H    1.20315593  -4.38682189   5.53349603
C   -0.00531598  -3.31784023   4.11507993
N   -0.13705205  -2.71312687   3.14985513
C   -0.46976014   5.91606334  -1.03525725
H    0.27608967   6.30440567  -0.37359384
H   -1.44159011   6.15816368  -0.65864999
H   -0.34549044   6.34863088  -2.00599999
C   -0.32337286   4.38612057  -1.13244719
N   -0.21438087   3.24700864  -1.20480952
C    3.91313789   1.61873283  -3.79698682
H    3.59070941   2.24561215  -4.60194792
H    4.46157362   0.78803284  -4.18948506
H    4.54048842   2.18038254  -3.13677473
C    2.68493842   1.10372558  -3.02375103
N    1.77048808   0.72027927  -2.44804184
C   -3.53823919  -1.23983098   1.68479313
H   -4.43381191  -0.80304123   2.07474747
H   -3.00708270  -1.72928461   2.47422775
H   -3.78959442  -1.95336186   0.92809416
C   -2.65198702  -0.13708134   1.07643443
N   -1.99213199   0.68396590   0.62348372
C    1.66276485  -3.40801213   0.13661719
H    1.16621263  -4.34621880   0.27116945
H    2.09377503  -3.09621278   1.06500853
H    2.43447076  -3.51486047  -0.59683527
C    0.64641494  -2.35267021  -0.33760460
N   -0.11030377  -1.56692019  -0.69068428
Na  -0.17805367   0.84699384  -0.97552346
