31
Energy:   -386.29210672
Na   0.03605379  -0.14556380  -0.12376486
C   -1.73878624  -4.68711997   1.34290532
H   -2.56230596  -4.61631935   2.02239244
H   -0.95292661  -5.25692506   1.79306739
H   -2.05911950  -5.16985247   0.44331929
C   -1.22354255  -3.27415013   1.01178579
N   -0.83992020  -2.22212985   0.76525225
C   -0.44045630  -0.96166323  -5.12846491
H    0.40456952  -1.49112743  -5.51640717
H   -0.48235218   0.01349536  -5.56688201
H   -1.33608655  -1.49751544  -5.36427830
C   -0.30732478  -0.83190312  -3.59972742
N   -0.20820231  -0.73529082  -2.46151287
C   -0.71798832   4.85901507  -0.35192065
H   -0.36327949   5.11919392   0.62347096
H   -1.74777988   5.13515126  -0.44234871
H   -0.14340787   5.37786665  -1.09053384
C   -0.57333991   3.34036122  -0.56255615
N   -0.46564259   2.20965439  -0.71938385
C   -2.26876399   0.22726735   4.58285149
H   -2.19829073  -0.78824475   4.91250111
H   -3.28082042   0.44498986   4.31222667
H   -1.96231446   0.88075203   5.37275373
C   -1.35464474   0.43495891   3.36102900
N   -0.67404140   0.58959472   2.45132662
C    5.08791904   0.62969130  -0.36929624
H    5.36407625   0.80362433  -1.38830785
H    5.66734926  -0.17922186   0.02417450
H    5.27188948   1.51301651   0.20584769
C    3.59173014   0.27225936  -0.29676216
N    2.47774950   0.00613504  -0.24275725
