31
Energy:   -388.27008591
Na  -0.07024943  -0.14754225   0.06297810
C   -2.38683502   4.32404866  -0.40928598
H   -1.82044223   4.78166947  -1.19330294
H   -2.34097980   4.93557171   0.46754693
H   -3.40577220   4.22053184  -0.71904458
C   -1.80150561   2.93426512  -0.09705021
N   -1.36570126   1.89950810   0.13542352
C   -2.43651268  -2.64668262  -3.78709532
H   -3.49174423  -2.51864879  -3.66464573
H   -2.19149354  -3.68512516  -3.70646157
H   -2.14267798  -2.28462756  -4.75015108
C   -1.69331348  -1.85746187  -2.69330121
N   -1.13996789  -1.26985114  -1.87892178
C    0.22305660   0.70893299   5.18351728
H    0.15681392   1.75232776   5.41120004
H    1.16365489   0.32869665   5.52350888
H   -0.57131165   0.18579136   5.67362034
C    0.10793441   0.50741309   3.66110584
N    0.02222070   0.35737236   2.52760132
C    1.73231797  -3.97760310   2.69263389
H    0.87382834  -4.12034357   3.31514565
H    2.53049111  -3.56636412   3.27461433
H    2.03691195  -4.91838577   2.28391692
C    1.38074036  -3.01001473   1.54731038
N    1.11897485  -2.28960121   0.69456497
C    2.85840539   1.73069493  -3.67494889
H    2.18672996   1.94162053  -4.48071728
H    3.55493521   0.97753941  -3.97909040
H    3.38908128   2.62140338  -3.41052378
C    2.05885561   1.22914545  -2.45808067
N    1.46355446   0.85571906  -1.55206697
