31
Energy:   -386.82344887
Na  -0.02763815   0.29359760   0.04783147
C   -1.49239679  -3.57548980  -2.93657574
H   -0.62987906  -3.84801832  -3.50814511
H   -2.30842413  -3.37102864  -3.59778230
H   -1.75607461  -4.38054383  -2.28292362
C   -1.17980871  -2.31884544  -2.10306890
N   -0.94707268  -1.38321659  -1.48248518
C    4.88336842   0.67171220   1.16018420
H    5.00197727   0.29579946   2.15493127
H    5.38312401   1.61380320   1.07296045
H    5.30614143  -0.02211259   0.46393048
C    3.38490607   0.85542810   0.85611335
N    2.26923275   0.99221295   0.62971879
C   -4.42523874   1.81187918   2.10771336
H   -4.33004218   1.54209069   3.13875748
H   -5.19740682   1.22531968   1.65538219
H   -4.67500374   2.84957283   2.03215930
C   -3.09142852   1.55087652   1.38353941
N   -2.09834618   1.35654818   0.84435898
C    1.94701450  -2.83905903   3.49894521
H    2.83849325  -2.26632889   3.64776060
H    2.20049229  -3.79204004   3.08364375
H    1.45226458  -2.97911861   4.43729745
C    1.01120139  -2.09019960   2.53195847
N    0.31444599  -1.53263972   1.81199288
C   -0.80875006   3.53087998  -3.83297271
H   -1.53873829   4.21686275  -3.45688095
H   -1.24902033   2.92499654  -4.59714968
H    0.01623255   4.07634549  -4.24134773
C   -0.31180999   2.63053264  -2.68666331
N    0.05818448   1.96018312  -1.83318385
