31
Energy:   -387.19762030
Na   0.25588737  -0.53103246   0.01875824
C   -0.93640644   0.06605950  -4.65095082
H   -1.49965614   0.97070351  -4.74722739
H   -1.43784019  -0.72333681  -5.17087077
H    0.03812940   0.20638133  -5.06986462
C   -0.80666106  -0.30177021  -3.16116311
N   -0.71005973  -0.57563616  -2.05194844
C   -3.13353154  -3.71539844   1.95077336
H   -4.07065300  -3.20551868   1.86876005
H   -2.94704822  -3.95614422   2.97652408
H   -3.16553865  -4.61559563   1.37326176
C   -2.00710543  -2.80713752   1.42368103
N   -1.16842999  -2.13089598   1.03123684
C    4.73942643  -2.96587267  -0.33531340
H    5.28076735  -2.62355713  -1.19244248
H    4.48831814  -3.99836656  -0.46101181
H    5.34541139  -2.85005934   0.53891117
C    3.44954076  -2.13921494  -0.17900609
N    2.48916226  -1.52373069  -0.06262820
C    1.23860230   4.36216868  -0.06867525
H    1.42982326   4.47929795   0.97756347
H    0.27157446   4.75692311  -0.30089323
H    1.98279619   4.88915889  -0.62845724
C    1.28410145   2.86696419  -0.43458966
N    1.31797764   1.75371648  -0.70702957
C   -2.22526864   2.72517673   3.14058951
H   -3.07499885   3.07802093   2.59436637
H   -1.59749533   3.55277079   3.39727574
H   -2.55347051   2.23595775   4.03381255
C   -1.43344987   1.73033589   2.27173120
N   -0.84390481   0.98963167   1.62482670
