31
Energy:   -385.40107661
Na  -0.30219699  -0.28637671   0.04365085
C   -5.05154352   0.99608867   1.70014885
H   -5.41139472   1.89987380   1.25452599
H   -4.96932033   1.12851354   2.75873380
H   -5.73484153   0.19932270   1.49238236
C   -3.66852593   0.65146764   1.11696903
N   -2.63880647   0.39488162   0.68276515
C    2.94092756  -1.71707998  -3.51654856
H    2.50682117  -2.47972371  -4.12877919
H    3.92701119  -2.01243012  -3.22447585
H    2.99157548  -0.80207756  -4.06891117
C    2.07359628  -1.51127880  -2.26076899
N    1.42782872  -1.35805047  -1.32578402
C   -0.25956762   4.05708542  -2.55130273
H    0.72726157   4.43751443  -2.38900021
H   -0.96438866   4.64977198  -2.00646420
H   -0.49047528   4.09828114  -3.59527766
C   -0.33311424   2.59723279  -2.06651289
N   -0.38787305   1.51030615  -1.70556482
C    2.56272761   2.24883168   3.35094607
H    3.52285639   1.81225126   3.17080603
H    2.29512848   2.11081253   4.37770822
H    2.59939612   3.29501154   3.12944615
C    1.51322546   1.57010737   2.45123581
N    0.73182341   1.06476627   1.78136062
C    0.19451393  -5.26647569   0.86907543
H   -0.49371964  -5.74283024   0.20250129
H    0.15445699  -5.74527777   1.82513145
H    1.18558007  -5.34306378   0.47306881
C   -0.18368724  -3.78153192   1.02239170
N   -0.46527520  -2.67592379   1.13654264
