31
Energy:   -383.72434001
Na  -0.02497692  -0.43594861  -0.36293972
C    0.11448826  -0.58975286   4.39667236
H   -0.93226440  -0.77811366   4.51384428
H    0.33730773   0.40338627   4.72671060
H    0.67095610  -1.29288527   4.98049377
C    0.49943910  -0.73604726   2.91275498
N    0.78605250  -0.84497010   1.80791103
C   -0.23430082   2.54503721  -4.16987571
H   -0.68599851   3.49931044  -3.99600227
H   -0.63528277   2.11850576  -5.06552267
H    0.82377627   2.66503445  -4.27462610
C   -0.52992009   1.61277557  -2.98029701
N   -0.75002207   0.91866440  -2.09460160
C    4.82894043  -0.92874518  -1.81167957
H    5.18159074  -0.15844669  -2.46526827
H    4.93085394  -1.87904078  -2.29277311
H    5.40429954  -0.92215079  -0.90956123
C    3.34661867  -0.67917442  -1.47696082
N    2.24296274  -0.49335764  -1.22774750
C   -2.53615387  -4.67225859   0.02682145
H   -2.81470886  -5.16420591  -0.88163610
H   -3.41038026  -4.48983480   0.61618456
H   -1.85922921  -5.29316936   0.57558544
C   -1.85127469  -3.33312633  -0.30373159
N   -1.34135101  -2.33608150  -0.54984335
C   -2.09303509   4.01516357   1.88284907
H   -1.38722652   4.41846763   2.57860785
H   -3.04473939   3.91037339   2.36052785
H   -2.18502204   4.67471382   1.04533431
C   -1.60673572   2.63626497   1.39937045
N   -1.24466374   1.60961228   1.03939865
