31
Energy:   -400.02924801
Na   0.00014810   0.00018300  -0.00031261
C   -1.00459632  -4.96346055   0.34676145
H   -0.85366391  -5.28856716   1.35494064
H   -0.35131299  -5.50572741  -0.30444253
H   -2.02054085  -5.14239595   0.06261726
C   -0.69986459  -3.45755522   0.24193906
N   -0.47297797  -2.33634026   0.16389402
C   -0.17641661   0.39128624   5.06706152
H    0.57135685  -0.23982055   5.50000407
H   -1.14247725   0.08957297   5.41432949
H    0.00438735   1.40639005   5.35302178
C   -0.12246871   0.27285894   3.53256988
N   -0.08230205   0.18468444   2.39007110
C    4.80864094   1.62606800   0.03988923
H    5.46015940   0.80743070   0.26406962
H    4.92174822   2.38616111   0.78444567
H    5.05756989   2.02743636  -0.92023415
C    3.34987725   1.13265658   0.02749228
N    2.26376138   0.76528935   0.01826219
C    0.17156667  -0.39827579  -5.06727418
H    0.94418821  -1.08452046  -5.34480686
H    0.37627800   0.56111786  -5.49454012
H   -0.76992028  -0.75605146  -5.42851925
C    0.11997523  -0.27647640  -3.53296547
N    0.08156306  -0.18579122  -2.39060289
C   -3.79949747   3.34398327  -0.38607935
H   -3.56648910   4.21586574   0.18874952
H   -4.70153932   2.90329677  -0.01592396
H   -3.93121826   3.61786583  -1.41201164
C   -2.64700788   2.32919544  -0.26957448
N   -1.78892698   1.57363977  -0.18283131
