31
Energy:   -388.36336546
Na   0.29725177   0.05465853   0.05852710
C   -0.03913309  -2.92088457   4.24299407
H   -0.88380539  -2.58304849   4.80628411
H    0.84686648  -2.82186998   4.83468652
H   -0.17644363  -3.94775750   3.97545549
C    0.09901131  -2.07169208   2.96573598
N    0.20186609  -1.43942967   2.01475927
C    1.73049596  -3.88813791  -2.93156906
H    1.32451896  -4.78555717  -2.51357204
H    2.79849448  -3.95219198  -2.94480995
H    1.36819693  -3.76436793  -3.93072845
C    1.29911887  -2.68246913  -2.07607119
N    0.97793902  -1.78479393  -1.43911413
C    2.78090678   4.13489080   1.54624623
H    3.83768233   4.06080119   1.69670008
H    2.31313106   4.45598365   2.45343107
H    2.57990639   4.84428585   0.77083884
C    2.22247667   2.75838978   1.14004338
N    1.80670007   1.73352221   0.83760690
C   -0.76250914   0.25666226  -4.73064871
H    0.19345155   0.22439019  -5.21022963
H   -1.39974584   0.94071165  -5.25113397
H   -1.20098603  -0.71928787  -4.74323596
C   -0.59015415   0.72322961  -3.27318219
N   -0.46182803   1.07061021  -2.18803212
C   -3.97334161   2.27405838   1.75683052
H   -4.80864148   1.69606027   1.42053824
H   -3.97055281   3.22059846   1.25787843
H   -4.04813523   2.42787077   2.81307232
C   -2.66749880   1.52225725   1.43875883
N   -1.69523947   0.96250713   1.20194001
