31
Energy:   -400.02913877
Na  -0.00039579  -0.00026773  -0.00114678
C    0.39325451  -5.06050408   0.07461488
H    0.15049163  -5.45185650  -0.89120583
H   -0.28268207  -5.46000399   0.80153211
H    1.39514633  -5.33628841   0.32967345
C    0.27351950  -3.52534190   0.05136359
N    0.18437134  -2.38234388   0.03405195
C   -2.41984667  -0.24896171  -4.46729183
H   -1.78447028  -0.71342358  -5.19218644
H   -2.66942496   0.73929978  -4.79278989
H   -3.31492801  -0.82467988  -4.35648989
C   -1.68685821  -0.17423768  -3.11498113
N   -1.14111497  -0.11860223  -2.10812434
C    2.41446395   0.25587199   4.46712807
H    3.38995373  -0.17316089   4.37094771
H    1.85834590  -0.28436185   5.20454193
H    2.50289601   1.27942638   4.76615193
C    1.68360480   0.17773817   3.11385796
N    1.13944695   0.11956399   2.10628684
C    3.66064687   2.79247059  -2.13763099
H    3.54376044   3.81587203  -1.84799803
H    3.59420438   2.71338073  -3.20263300
H    4.61592244   2.43664273  -1.81246303
C    2.54961878   1.94549246  -1.48967681
N    1.72240786   1.31487874  -1.00724547
C   -4.04819047   2.26161703   2.06450999
H   -4.87947690   2.18636674   1.39503225
H   -3.82734545   3.29300640   2.24440591
H   -4.29087527   1.78217539   2.98978773
C   -2.82032428   1.57552786   1.43743243
N   -1.90612208   1.06470328   0.97054469
