31
Energy:   -384.57889260
Na   0.13645226  -0.38384545  -0.03237003
C    1.21124214   4.84853178  -0.82470367
H    0.57549409   5.35487606  -0.12875822
H    0.88650984   5.05839457  -1.82240384
H    2.21857109   5.18671288  -0.69892196
C    1.14381508   3.33099829  -0.57143362
N    1.09361256   2.20112564  -0.38286256
C   -3.48546550   2.92498522  -0.71423385
H   -4.22092976   2.88423885   0.06186681
H   -3.97189381   2.91873134  -1.66725404
H   -2.90987571   3.82133288  -0.61345505
C   -2.55527097   1.70255769  -0.60464793
N   -1.86269886   0.79240483  -0.52305622
C   -1.54906849  -5.12714687  -0.24967580
H   -1.97922270  -5.34364284  -1.20518458
H   -2.31317034  -5.15044372   0.49899282
H   -0.80273681  -5.85882691  -0.02047623
C   -0.90439106  -3.72894967  -0.28185670
N   -0.42439942  -2.68792830  -0.30581684
C   -0.15906553  -0.68419974   5.10198457
H   -0.27204069   0.31126581   5.47773065
H    0.71825927  -1.12754343   5.52465071
H   -1.01661112  -1.26571912   5.36909852
C   -0.02493278  -0.64188924   3.56842067
N    0.07493515  -0.61038714   2.42661264
C    3.79299819  -1.58558379  -3.21977531
H    3.81107318  -2.64785089  -3.34690550
H    4.72167245  -1.26087200  -2.79903136
H    3.64795274  -1.11509372  -4.16977531
C    2.63914197  -1.20120882  -2.27506810
N    1.78004357  -0.91502417  -1.57169065
