31
Energy:   -400.02930315
Na   0.00009667  -0.00014279   0.00003509
C    2.38570545   4.40551416  -0.81628735
H    1.81631124   5.20414527  -0.38864407
H    2.48919805   4.56525539  -1.86922188
H    3.35455016   4.37575071  -0.36312826
C    1.66184206   3.06900914  -0.56854529
N    1.12289287   2.07392040  -0.38409006
C   -4.43931068   2.46083131   0.31252515
H   -5.22676356   1.75602920   0.48007252
H   -4.62015551   2.98710337  -0.60138511
H   -4.40512963   3.15709219   1.12428344
C   -3.09487857   1.71568461   0.21840447
N   -2.09388776   1.16088902   0.14832734
C   -1.77415086  -2.69238406  -3.92056383
H   -2.50380529  -3.39260231  -3.57099411
H   -0.96765954  -3.21989018  -4.38554571
H   -2.22533835  -2.03210225  -4.63144841
C   -1.23536486  -1.87568949  -2.73131212
N   -0.83421420  -1.26762327  -1.84586016
C   -0.61262822  -1.71432012   4.73851601
H   -1.65366930  -1.71535882   4.98576603
H   -0.08513536  -1.07867695   5.41866902
H   -0.22807879  -2.71027062   4.80995436
C   -0.42696608  -1.19425106   3.30092854
N   -0.28873218  -0.80703601   2.23057932
C    4.44029485  -2.45944145  -0.31427786
H    4.27616291  -3.50957436  -0.19106353
H    5.09720034  -2.10855449   0.45400112
H    4.88189505  -2.27738864  -1.27174594
C    3.09549272  -1.71506865  -0.21932335
N    2.09422640  -1.16084926  -0.14862540
