31
Energy:   -387.47601184
Na  -0.49943550   0.11614888   0.04742928
C    1.91732894   3.76569997  -2.62361143
H    1.63032548   3.84850695  -3.65107053
H    2.95167148   3.49865074  -2.56262534
H    1.76164783   4.70380722  -2.13308389
C    1.06578221   2.68069596  -1.93860453
N    0.43176696   1.87286115  -1.42858575
C    0.94143895  -4.40202165  -1.76230236
H    0.84969001  -4.62553922  -2.80466612
H    0.35176783  -5.09248203  -1.19621797
H    1.96707058  -4.48454857  -1.46875825
C    0.44603068  -2.96779703  -1.49929972
N    0.07717672  -1.89995161  -1.30348230
C   -4.59201332  -1.79911485  -2.05014095
H   -5.54076526  -1.84842817  -1.55786245
H   -4.20239314  -2.78798710  -2.17353819
H   -4.71137295  -1.34050382  -3.00947837
C   -3.61549116  -0.96495928  -1.20032394
N   -2.88842602  -0.34389254  -0.56759655
C   -1.60737515   3.14704411   4.14661203
H   -0.80614970   3.84636325   4.26447086
H   -1.75796317   2.61907157   5.06501681
H   -2.50288246   3.67130876   3.88562866
C   -1.25494495   2.14588212   3.03078605
N   -0.99254465   1.40047150   2.20000289
C    3.91667997  -0.86455482   2.23521690
H    4.49419537  -1.41689576   1.52367236
H    3.86954283  -1.40841885   3.15548267
H    4.37610520   0.08655594   2.40614347
C    2.49210034  -0.65572723   1.68880688
N    1.43143605  -0.50024560   1.28197978
