31
Energy:   -383.21094141
Na   0.08929844  -0.08504501   0.13920186
C    1.12466735   4.84619793   0.87723198
H    0.39918850   5.23369775   1.56164743
H    1.01418335   5.32937168  -0.07104831
H    2.10771077   5.02887349   1.25822326
C    0.91298087   3.33015988   0.70865715
N    0.75537067   2.20140064   0.58314553
C   -2.35200474   0.72791476  -3.65251865
H   -1.86655110   1.54816863  -4.13874755
H   -3.40863212   0.79674023  -3.80646903
H   -1.99129717  -0.19293847  -4.06095281
C   -2.04909023   0.77364552  -2.14329650
N   -1.82355660   0.80769415  -1.01961201
C   -3.41654126  -3.31889851   2.10892439
H   -4.32633434  -2.77379261   2.25047397
H   -3.06941929  -3.68471105   3.05263337
H   -3.59347114  -4.14322180   1.45007235
C   -2.35206681  -2.39053597   1.49521671
N   -1.55951720  -1.69932785   1.03828344
C    2.06156462  -1.05751044   4.75007293
H    3.09790640  -0.85395391   4.92171393
H    1.83022304  -2.04413498   5.09351461
H    1.46541782  -0.34576460   5.28198076
C    1.76097132  -0.95485965   3.24318658
N    1.53716594  -0.87843147   2.12124119
C    2.59772466  -1.18367498  -4.22809894
H    2.74216459  -0.36972481  -4.90745334
H    2.16600964  -2.01180418  -4.75032806
H    3.54074516  -1.47501484  -3.81490103
C    1.65393978  -0.74395537  -3.09341097
N    0.95124905  -0.41656414  -2.24858421
