31
Energy:   -384.21752637
Na   0.19702942   0.35716399  -0.78123864
C    3.43452475   3.77890584   1.09980224
H    3.45957773   4.68862416   0.53705441
H    4.41141941   3.34266555   1.11624384
H    3.12013873   3.98744628   2.10108712
C    2.44494825   2.79730735   0.44497194
N    1.70816356   2.06646265  -0.04257899
C   -4.31866937   2.68540832  -0.68330875
H   -4.99814639   1.91560569  -0.98433212
H   -4.42896737   3.53116570  -1.32939536
H   -4.53238743   2.97587205   0.32409112
C   -2.87438692   2.15803869  -0.77008129
N   -1.79905299   1.76538803  -0.83468739
C   -2.88033540  -3.24435825   0.38173679
H   -3.37673943  -2.82441337   1.23151883
H   -2.19755613  -4.00178686   0.70579461
H   -3.60461685  -3.67542109  -0.27742957
C   -2.10615117  -2.13822376  -0.35900962
N   -1.52973582  -1.31465634  -0.91052900
C    0.96968579  -1.47493702   4.35467998
H    2.01418428  -1.61548301   4.53953103
H    0.44730950  -2.38873246   4.54703382
H    0.59378935  -0.70699816   4.99800794
C    0.75922961  -1.06273067   2.88587294
N    0.60253541  -0.75582431   1.79227933
C    2.65518210  -2.11306700  -4.36865195
H    2.50997737  -3.14134506  -4.11085359
H    3.70200775  -1.89172253  -4.37651249
H    2.24401329  -1.92709963  -5.33883515
C    1.94929646  -1.21933823  -3.33203517
N    1.42373251  -0.55391654  -2.56022685
