31
Energy:   -384.27735002
Na  -0.28814553  -0.30189359   0.57011836
C   -1.67120653   3.63479184  -2.29830210
H   -0.84200628   3.69086764  -2.97223284
H   -1.81911558   4.58773964  -1.83471555
H   -2.55268700   3.36072717  -2.83939343
C   -1.38308310   2.57699850  -1.21679475
N   -1.16856212   1.78942328  -0.41156337
C    2.95168590  -2.64272386  -2.42795512
H    3.66966241  -3.21800463  -1.88163841
H    3.44589292  -1.83372071  -2.92411278
H    2.47229298  -3.26643060  -3.15326293
C    1.89701333  -2.08143690  -1.45624389
N    1.11176166  -1.66353325  -0.73276071
C    0.68281188  -1.70879486   5.39857719
H    0.45991104  -0.85908763   6.00948881
H    1.71977998  -1.95466243   5.49420867
H    0.08843932  -2.54070024   5.71409867
C    0.36661518  -1.38055015   3.92756562
N    0.13119236  -1.13615704   2.83233063
C    2.72965097   3.69374918  -0.28068545
H    3.68363872   3.59905843  -0.75591298
H    2.81239866   4.35453912   0.55681594
H    2.02130529   4.08918505  -0.97837877
C    2.25701435   2.30985502   0.20206872
N    1.90511491   1.27948292   0.56150114
C   -4.53151694  -2.68133883  -0.99516350
H   -5.15403634  -2.85936456  -0.14329695
H   -4.20339087  -3.61639029  -1.39878601
H   -5.08717116  -2.14766931  -1.73768915
C   -3.30808176  -1.84742342  -0.57161724
N   -2.39717865  -1.22653550  -0.25626780
