31
Energy:   -382.91198592
Na  -0.81828945  -0.08243716  -0.07311067
C    1.62210282   3.63115331   2.21571053
H    2.29335420   3.04942379   2.81229457
H    0.96341469   4.18193077   2.85420346
H    2.18239155   4.31156835   1.60907142
C    0.79762271   2.69641045   1.31122816
N    0.18375980   2.00045191   0.63779993
C   -5.39358747   1.41861576   1.38712122
H   -5.28169755   1.95230576   2.30774916
H   -6.06552236   0.59822754   1.52982990
H   -5.78650179   2.07556596   0.63950243
C   -4.02203600   0.88572870   0.93272276
N   -3.00085359   0.48897007   0.59440245
C    4.18292881   0.05405158  -1.85841927
H    4.38876301  -0.87135242  -2.35456430
H    4.80043419   0.13743996  -0.98857297
H    4.38928142   0.86794143  -2.52166961
C    2.70093916   0.09453175  -1.44168430
N    1.59753051   0.12467107  -1.13140618
C    0.45839796  -3.88035135   2.97201200
H    1.44178027  -4.15397946   2.65109601
H   -0.21735697  -4.68703338   2.77831512
H    0.47121348  -3.66988245   4.02102949
C   -0.00280110  -2.62842799   2.20286746
N   -0.34618477  -1.69631414   1.63020439
C   -0.06950728  -1.11804730  -4.61033342
H   -0.46792694  -0.24747359  -5.08810259
H   -0.35832492  -1.98988071  -5.15932338
H    0.99806950  -1.05206912  -4.58159688
C   -0.61691281  -1.21119369  -3.17392437
N   -1.02448110  -1.28054541  -2.10445255
