31
Energy:   -385.10270656
Na  -0.04568026  -0.49838464   0.20125994
C   -4.48010130   1.00011368  -1.73376529
H   -4.70057377   2.00659623  -1.44517398
H   -5.26593268   0.35383441  -1.40256861
H   -4.39770227   0.94446344  -2.79913496
C   -3.15036664   0.56178417  -1.09245960
N   -2.16031874   0.23542793  -0.61497837
C   -1.43704746   0.57879461   4.92222149
H   -0.74790036   1.29208765   5.32370561
H   -1.53429721  -0.24363519   5.59975437
H   -2.39139592   1.04287445   4.78529808
C   -0.91538788   0.06794101   3.56630856
N   -0.52698862  -0.31241271   2.55676974
C    4.17280468   0.28605156  -2.45992308
H    5.12114174   0.13339281  -1.98848666
H    4.07712366   1.31309677  -2.74439165
H    4.10321292  -0.33297896  -3.32989854
C    3.04577546  -0.08147076  -1.47690096
N    2.20665098  -0.35510784  -0.74499631
C    2.25375218   4.06554481  -0.33735543
H    2.30882491   4.76150719   0.47351049
H    1.99624994   4.58521088  -1.23654332
H    3.20252246   3.58664474  -0.46140686
C    1.17957746   3.00520479  -0.03169594
N    0.37980556   2.21573345   0.19588144
C   -0.41631448  -5.55222228  -0.71305543
H   -1.40129561  -5.89350056  -0.47172267
H    0.29870378  -6.07019832  -0.10861453
H   -0.21554859  -5.74412500  -1.74638282
C   -0.31672239  -4.03933925  -0.44311777
N   -0.24257155  -2.91292906  -0.24213692
