31
Energy:   -400.02921537
Na   0.00017731   0.00050835   0.00004989
C   -0.91282271  -2.20501850  -4.47989584
H   -0.94971528  -1.45732937  -5.24442190
H   -1.84968915  -2.72033039  -4.43947282
H   -0.13153795  -2.90213227  -4.70018115
C   -0.63580316  -1.53614410  -3.12068018
N   -0.42954952  -1.03813671  -2.10868234
C   -2.92284060  -3.46758597   2.30020899
H   -2.94143345  -3.27714084   3.35296021
H   -2.52429576  -4.44436755   2.12143859
H   -3.91754179  -3.41131265   1.90995017
C   -2.03805972  -2.41683896   1.60400966
N   -1.37930014  -1.63451004   1.08565762
C    3.96118958  -1.48096988   2.80768911
H    4.72519405  -0.73280258   2.76970178
H    4.34553313  -2.40300960   2.42425478
H    3.64754918  -1.61931788   3.82129092
C    2.75983245  -1.03160509   1.95539085
N    1.86536746  -0.69703258   1.32081605
C    2.92646146   3.46056658  -2.30799748
H    3.32069195   4.13817457  -1.57975994
H    2.34175951   4.00361988  -3.02081992
H    3.73271652   2.96741950  -2.80965257
C    2.04019181   2.41348808  -1.60817413
N    1.38032377   1.63389054  -1.08712383
C   -3.05209514   3.69222913   1.67973503
H   -3.37879203   3.46082638   2.67201629
H   -3.90170639   3.77388818   1.03445089
H   -2.51921312   4.62006735   1.68695181
C   -2.12604089   2.57235268   1.16993090
N   -1.43655140   1.73855376   0.79035855
