31
Energy:   -385.72218076
Na  -0.81889303  -0.00883469   0.01785102
C   -1.99519295   4.85872901  -1.18959588
H   -1.00824748   5.25420132  -1.30976439
H   -2.53037110   5.44686549  -0.47364970
H   -2.50744214   4.88677176  -2.12859187
C   -1.90814413   3.40270444  -0.69561719
N   -1.84333232   2.31862796  -0.32782760
C    2.34855145  -3.87192893  -1.26808115
H    2.48400501  -4.53183733  -0.43677289
H    3.29317113  -3.45702768  -1.55171772
H    1.93618096  -4.41609381  -2.09193445
C    1.38755691  -2.73610914  -0.87058539
N    0.67205279  -1.89043967  -0.57463172
C   -3.88570914  -3.79749680   1.41619705
H   -3.34462706  -4.53170204   1.97572634
H   -4.26360456  -4.24036669   0.51844408
H   -4.70134674  -3.43097953   2.00381894
C   -2.94666585  -2.63089734   1.05724943
N   -2.24750544  -1.76231101   0.78999662
C    1.34836842   1.85347159   4.16530514
H    1.36041231   2.91442461   4.02698014
H    2.35304258   1.48988830   4.22306431
H    0.83111583   1.61782799   5.07184855
C    0.62951026   1.18892991   2.97651277
N    0.09428768   0.69414843   2.09140282
C    2.98691623   0.85538703  -3.18320617
H    2.93100053  -0.00739786  -3.81358373
H    3.82126777   0.75926263  -2.52024560
H    3.10969392   1.73053249  -3.78648484
C    1.68984015   0.97594452  -2.36182957
N    0.72410804   1.06570506  -1.75027736
