31
Energy:   -383.53187207
Na  -0.17627224  -0.41774611  -0.42713059
C   -0.16798908   0.03353890   4.58860258
H   -1.13224007   0.38567626   4.89046264
H    0.58572561   0.69738120   4.95755604
H   -0.00568807  -0.94654082   4.98609624
C   -0.09856622  -0.01813027   3.05103607
N   -0.04687775  -0.05660032   1.90624792
C    4.87474359  -0.69215204  -0.64184782
H    5.34723268   0.26512583  -0.71446545
H    5.25846673  -1.33801243  -1.40376646
H    5.07492432  -1.11667970   0.31971498
C    3.35432473  -0.52935765  -0.82467141
N    2.22230377  -0.40814983  -0.96079188
C   -0.96904685  -5.38610541  -1.82267421
H   -1.83684299  -5.81526031  -1.36698120
H   -0.10493494  -5.95565441  -1.55096915
H   -1.08289234  -5.39629415  -2.88655131
C   -0.79989162  -3.93405162  -1.33839507
N   -0.67394786  -2.85293156  -0.97782724
C    1.24895495   4.41414838  -0.81624665
H    2.30412356   4.23661337  -0.81540116
H    0.96276617   4.86724069   0.10987560
H    0.99784975   5.06749298  -1.62555877
C    0.50360131   3.07722164  -0.98558311
N   -0.05134836   2.08181891  -1.11166180
C   -4.63878301   1.98989500  -0.80335086
H   -4.56906423   2.44922785  -1.76722471
H   -4.50713019   2.73227138  -0.04411181
H   -5.60088093   1.53458788  -0.69397936
C   -3.54390386   0.91563201  -0.66624266
N   -2.72871655   0.11579438  -0.56415938
