31
Energy:   -400.02924546
Na  -0.00001520   0.00029750  -0.00026461
C   -0.00271702  -1.60497454   4.82524142
H    0.44704355  -2.57442366   4.87800517
H   -1.00972418  -1.65903311   5.18289115
H    0.55422507  -0.92002235   5.42985296
C   -0.00227874  -1.11770682   3.36436155
N   -0.00195242  -0.75491385   2.27667009
C   -2.79152846  -4.02444932  -1.33310407
H   -2.17970678  -4.90220828  -1.32244547
H   -3.18500970  -3.87588108  -2.31697351
H   -3.59838867  -4.14366032  -0.64052596
C   -1.94449844  -2.80338288  -0.92920200
N   -1.31384608  -1.89424341  -0.62847854
C    5.06781863  -0.27763940  -0.08453705
H    5.36845627  -1.30421598  -0.11018312
H    5.46485413   0.18846661   0.79296343
H    5.43840322   0.22435745  -0.95376966
C    3.53032335  -0.19348081  -0.05952540
N    2.38558823  -0.13082091  -0.04090309
C    0.00366518   1.59793484  -4.82828672
H    0.56066585   2.50852166  -4.90232776
H   -1.00305473   1.76862750  -5.14809625
H    0.45399586   0.85278831  -5.45026583
C    0.00278516   1.11415379  -3.36624871
N    0.00212995   0.75395682  -2.27769496
C   -2.27719371   4.30859137   1.42091406
H   -1.73353391   5.14411891   1.03203371
H   -2.30078844   4.36439748   2.48919682
H   -3.27721806   4.32556428   1.04070055
C   -1.58640991   3.00130658   0.99030494
N   -1.07208998   2.02797363   0.66969688
