31
Energy:   -387.69801457
Na  -0.61519629   0.02593718  -0.35305686
C   -0.66283644   1.29478794   4.38621079
H    0.19208215   0.78998592   4.78519613
H   -1.55336887   0.79449790   4.70489711
H   -0.67638062   2.30542474   4.73739295
C   -0.59208553   1.28680765   2.84785757
N   -0.53940826   1.28086596   1.70248368
C    2.39594064   3.98172624  -1.53410386
H    2.59770239   4.16978480  -2.56794445
H    3.31854352   3.84388899  -1.00998183
H    1.86931774   4.81420025  -1.11630673
C    1.53563785   2.71130259  -1.40180551
N    0.89510332   1.76541444  -1.30330337
C   -3.76814964   0.59810588  -4.29967763
H   -3.92340282  -0.35202547  -4.76663271
H   -3.29531804   1.26282143  -4.99212445
H   -4.71065733   1.00652672  -4.00005994
C   -2.86871705   0.42107024  -3.06222888
N   -2.19904861   0.28925915  -2.14089204
C    3.55161725  -2.49433082  -1.65813844
H    4.32730336  -1.77387692  -1.50271188
H    3.50199864  -2.74654622  -2.69680320
H    3.76251345  -3.37429949  -1.08710691
C    2.20308753  -1.90174608  -1.20879346
N    1.19904585  -1.46053981  -0.87423569
C   -1.02183123  -3.41339082   3.48233474
H   -1.75684006  -4.16718296   3.29139079
H   -1.30081135  -2.85526264   4.35156551
H   -0.07077678  -3.87577271   3.64542216
C   -0.93125242  -2.46629499   2.27138265
N   -0.86381238  -1.76113909   1.36977377
