31
Energy:   -400.02922928
Na   0.00017784   0.00000564   0.00000216
C    2.56432180   4.39157504  -0.03997597
H    1.99074209   5.14384606   0.46001885
H    2.74164984   4.69181995  -1.05156227
H    3.49987071   4.26317108   0.46317386
C    1.78813551   3.06154224  -0.02782627
N    1.21022954   2.07127237  -0.01878026
C   -3.80421685   2.19830789  -2.54202118
H   -4.11543687   1.55845337  -3.34116351
H   -3.47256030   3.13350170  -2.94241545
H   -4.62667487   2.36601004  -1.87844157
C   -2.64990341   1.53187318  -1.77064238
N   -1.79046458   1.03568225  -1.19631580
C   -2.57391353  -4.38574110   0.04038173
H   -3.50681492  -4.24615658   0.54546722
H   -2.00068793  -5.13195028   0.54977681
H   -2.75667478  -4.70138776  -0.96553308
C   -1.79320831  -3.05835744   0.02805341
N   -1.21193779  -2.07005998   0.01887441
C    0.02509702   0.03077879   5.07598969
H   -0.87134732   0.49196494   5.43459122
H    0.87364813   0.58122863   5.42508149
H    0.07850168  -0.97460963   5.43826191
C    0.01716468   0.02178695   3.53603637
N    0.01125869   0.01509211   2.38947112
C    3.78822810  -2.23476126  -2.53436425
H    3.65409933  -3.29612403  -2.51390174
H    4.72127412  -1.98423643  -2.07440607
H    3.78803766  -1.89472690  -3.54889650
C    2.63865651  -1.55715482  -1.76564149
N    1.78274821  -1.05264602  -1.19329245
