18
Energy:   -141.20703842
O    0.46792804  -1.55250665   1.19278188
H    0.82205126  -1.23556673   0.36189219
H    0.70849739  -0.87879804   1.82876534
O   -2.14724305  -1.48123504   0.48663277
H   -1.24928564  -1.54724268   0.81151325
H   -2.61317771  -2.19485342   0.92239136
O    1.16621824  -0.44527885  -1.22378560
H    1.43380200  -1.00828719  -1.95018245
H    0.26888390  -0.18900237  -1.43672999
O   -1.49523007   0.08277787  -1.64678606
H   -2.28113419   0.49441242  -2.00615153
H   -1.81706353  -0.46406217  -0.93011246
C    1.53988512   2.63710028   0.39262631
H    2.11612057   3.48035654   0.71164318
H    0.58568674   2.96968308   0.04078370
H    2.05487489   2.13146077  -0.39731882
C    1.34266854   1.67251220   1.57680344
N    1.19583184   0.95433254   2.45847714
