18
Energy:   -141.28000787
O    1.63232067  -1.75830577  -0.84493580
H    1.70352957  -1.17949467  -0.08589769
H    2.46134741  -2.23653032  -0.86067699
O    0.12646448   1.79925585  -0.25046391
H    0.49918455   2.56036019  -0.69547152
H   -0.03961369   1.16892821  -0.95141823
O   -0.14501416  -0.17262858  -2.14795600
H   -0.49941407  -0.63589976  -2.90691079
H    0.47407371  -0.78963539  -1.75774496
O    1.68479164   0.04513865   1.19690302
H    1.11202798  -0.21853676   1.91707585
H    1.21407008   0.75760184   0.76441109
C   -2.64300902   0.29831589   1.13386948
H   -3.57789813  -0.11602125   1.44884134
H   -2.43088106  -0.01910474   0.13429709
H   -2.69775521   1.36646483   1.16485007
C   -1.52397766  -0.18583679   2.07459527
N   -0.69080795  -0.54631047   2.77500838
