18
Energy:   -141.21874410
O    0.71265863  -1.22175633  -2.23081518
H   -0.13970111  -0.91768411  -1.91895814
H    0.52502821  -1.64280419  -3.06971051
O   -0.58538548  -0.81691158   1.40938469
H   -0.81053085  -1.62414929   1.87188732
H    0.30467137  -0.96393999   1.08936390
O    1.83700536  -1.27239420   0.24701288
H    2.79091862  -1.27021303   0.16778808
H    1.52117479  -1.28293754  -0.65652004
O   -1.60738577  -0.40306672  -1.10705983
H   -1.36818571  -0.57234696  -0.19581926
H   -1.75150543   0.54243327  -1.14567517
C   -0.01259509   2.55395343   1.65068106
H   -0.44701951   1.92736770   2.40139134
H    0.02605799   3.56236560   2.00636338
H    0.97838436   2.21449307   1.43244842
C   -0.86925135   2.49297783   0.37239235
N   -1.50707088   2.44757872  -0.57935170
