18
Energy:   -141.20628272
O   -0.03699399  -1.79001928   1.93026627
H   -0.23088107  -2.08337454   2.82053721
H   -0.42583276  -0.91709123   1.87519480
O    1.77517296  -1.35307566  -0.05664345
H    1.17170441  -1.59199474   0.64690131
H    2.09092859  -2.19029711  -0.39662942
O   -0.94857719   0.74806524   1.62646340
H   -0.23211040   1.07253142   1.08090966
H   -1.72246233   0.80695517   1.06622630
O    1.15538377   1.31662655  -0.04822228
H    1.42558269   0.40169224  -0.12645013
H    1.93034206   1.76794976   0.28641013
C   -0.98695114   0.82649924  -2.77523527
H   -1.47081735   1.25322501  -3.62886211
H   -0.69569879  -0.17915658  -2.99597843
H   -0.11959722   1.40363945  -2.53129790
C   -1.95807417   0.82907525  -1.58003092
N   -2.68111941   0.83099321  -0.69014696
