18
Energy:   -141.19568085
O   -1.05399360  -1.92593084  -0.44545729
H   -1.93255136  -2.26136249  -0.62393340
H   -0.79321425  -1.49190973  -1.25776983
O    1.52900849   0.81782031  -0.99703795
H    1.17735986   1.64976344  -0.68010622
H    1.46828948   0.22936573  -0.24453130
O    1.00168568  -0.92770182   1.06215421
H    0.24706950  -1.31277398   0.61661441
H    1.58035467  -1.66945359   1.23872816
O   -0.15405349  -0.54634177  -2.61547452
H    0.45465670  -0.00369316  -2.11423979
H    0.19977499  -0.54504385  -3.50487633
C   -1.06012240   1.50289575   2.50212750
H   -0.39804676   0.73189062   2.83695154
H   -1.97649049   1.06482545   2.16558177
H   -1.26170538   2.17542455   3.30957311
C   -0.40400137   2.27512317   1.34248531
N    0.08451055   2.85008159   0.47907899
