18
Energy:   -141.20598100
O   -0.82807472  -1.81065135   0.26723408
H   -0.07731467  -1.38137831   0.67749723
H   -0.52456996  -2.03617201  -0.61211632
O    1.19086430  -0.25436837   1.29538793
H    1.45410973  -0.31136575   2.21391119
H    0.67617936   0.55096587   1.24277592
O   -0.49746434   1.88898625   1.11333174
H   -1.28217404   1.39613061   0.87342374
H   -0.75920133   2.80688244   1.04127496
O   -2.56749216   0.26845582   0.40332103
H   -3.45632128  -0.06562887   0.52416004
H   -2.02523657  -0.51610827   0.32177411
C    2.24159274   0.29737593  -2.02834553
H    1.71235159   1.20757481  -2.21898128
H    3.04056202   0.19513563  -2.73268501
H    2.64138129   0.31837704  -1.03606172
C    1.27798747  -0.89570847  -2.16839739
N    0.56053956  -1.78401403  -2.27267237
