18
Energy:   -139.54917772
O    0.77911775   0.39820056   1.73500721
H    0.13234479  -0.26049500   1.48195237
H    1.03759821   0.15194363   2.62313852
O    1.68660925  -0.05617456  -0.83747757
H    0.88488243   0.17132830  -1.30833678
H    1.52336539   0.22326130   0.06335476
O    1.30601129  -2.70188158  -0.43743568
H    1.56324403  -1.80128793  -0.63490528
H    2.13393446  -3.16756598  -0.31948185
O   -0.87702068  -1.47600694   0.67512841
H   -1.15978809  -0.95182049  -0.07420663
H   -0.21453075  -2.06742769   0.31797236
C   -2.14715157   3.02806101  -0.58611048
H   -1.95006718   3.75612823  -1.34504135
H   -1.68697264   3.33431278   0.33004687
H   -3.20376926   2.93970747  -0.44240310
C   -1.57237880   1.66657550  -1.01923108
N   -1.14443435   0.65288765  -1.34170906
