18
Energy:   -141.20728716
O   -1.65634947   0.17139113   2.00101491
H   -2.14640231  -0.18809318   2.74050871
H   -1.23668179  -0.58909016   1.59879718
O    1.76281342  -0.12024660   0.11764733
H    1.27167138   0.65261399   0.39639070
H    2.56097440  -0.10068677   0.64565142
O    0.20863234   1.92147484   1.07000700
H   -0.49034130   1.37634831   1.43126144
H   -0.10170278   2.81920695   1.18833293
O   -0.28040605  -1.83444798   0.79863562
H    0.51041739  -1.34717858   0.56755409
H   -0.66434339  -2.08171183  -0.04260427
C    0.31562834   0.26850034  -2.95005247
H    0.06936728   0.41492860  -3.98098139
H    1.36448977   0.07820615  -2.85744088
H    0.06213351   1.14714627  -2.39451597
C   -0.47467457  -0.93296098  -2.39913322
N   -1.06309101  -1.82750354  -1.98894879
