18
Energy:   -141.19463110
O    1.75873702  -0.25874933   0.91199044
H    1.80101219   0.69433029   0.98998979
H    1.44445067  -0.41292360   0.02109974
O    0.51055703  -0.68117410  -1.49877996
H    0.75665700  -1.42421919  -2.04973427
H   -0.31714459  -0.94444328  -1.09649744
O   -1.70886823  -1.47714981  -0.11696081
H   -1.28318668  -1.50823555   0.73981265
H   -2.64325828  -1.55299807   0.07641475
O   -0.29751508  -1.44818985   2.20666444
H    0.46304597  -1.00428152   1.83153230
H    0.06220994  -1.98569468   2.91229771
C   -0.47397976   2.66987551  -1.47826772
H   -0.45029463   3.63911125  -1.93095002
H   -1.45793747   2.47386758  -1.10637095
H   -0.21376944   1.92988047  -2.20600190
C    0.53358838   2.62204504  -0.31460166
N    1.28376866   2.58643309   0.55180061
