18
Energy:   -139.36752511
O    1.59092254  -1.41561042   0.42544208
H    1.90879605  -0.81559931   1.10010863
H    0.73127653  -1.69607794   0.73941431
O   -1.06346608  -1.87110527   1.07720767
H   -1.65946168  -2.61388260   1.17365938
H   -1.45738518  -1.33514575   0.38887128
O    0.73766213   0.05570684  -1.67277807
H    1.09940985  -0.45424515  -0.94798885
H    1.28898975  -0.16830562  -2.42250344
O   -1.88913540  -0.31590441  -1.05186327
H   -2.44826281   0.18992023  -1.64156644
H   -0.99897038  -0.14416439  -1.35901708
C    0.11531857   2.65536524   0.66817643
H   -0.75107232   2.07105088   0.43829879
H    0.53762695   3.03851725  -0.23722363
H   -0.16211426   3.46941333   1.30477348
C    1.15376317   1.77326634   1.38590503
N    1.92693237   1.11650361   1.92028661
