18
Energy:   -141.20421654
O   -0.52456048   2.17545131   0.06997800
H   -0.45804307   3.05538201  -0.30087136
H   -1.10582346   1.70612666  -0.52843621
O   -2.11692644   0.62085238  -1.49820207
H   -2.98133969   0.43069897  -1.86270620
H   -1.85019289  -0.19514936  -1.07485088
O    0.00033877   0.05951391   1.72099884
H   -0.11300309   0.84516840   1.18608530
H   -0.40763803   0.27863181   2.55871844
O   -1.25809728  -1.54696624  -0.12365806
H   -0.84891318  -1.08776464   0.60978187
H   -0.53693499  -2.01149550  -0.54835721
C    3.01639476  -0.61142649   0.18698466
H    2.93018580   0.35444829  -0.26529194
H    4.02537783  -0.95694896   0.10057586
H    2.74903836  -0.54622743   1.22099081
C    2.07308152  -1.59810974  -0.52590825
N    1.37074193  -2.33274027  -1.05668942
