18
Energy:   -141.19384447
O   -2.38172388  -0.66702287  -0.97388615
H   -3.02323635  -1.30138684  -1.29369225
H   -1.57991738  -1.17599673  -0.85437134
O   -1.70503169   1.25107781   0.83308947
H   -2.02368486   0.62249537   0.18534251
H   -2.19287280   2.05374740   0.64879507
O    0.44150195  -0.22711010   1.64951478
H    0.25789798  -0.48433007   2.55304082
H   -0.27445917   0.36461832   1.41823788
O   -0.05953902  -1.95202568  -0.42830148
H    0.17073462  -1.44688911   0.35146959
H    0.64006281  -1.76121063  -1.05310445
C    2.69710501   1.47709710  -0.39266615
H    1.96038392   2.23240989  -0.57055600
H    3.66270679   1.84975284  -0.66403304
H    2.69490413   1.21394786   0.64446775
C    2.37085495   0.23240157  -1.23877132
N    2.12794695  -0.69433082  -1.86873508
