18
Energy:   -141.30625970
O   -1.00974835  -0.63611036  -2.19464561
H   -0.14258521  -0.86094883  -1.85744005
H   -1.10956206  -1.17566875  -2.97895793
O   -1.30741423   1.61440518  -0.70579554
H   -2.15444426   2.01528797  -0.90089798
H   -1.27964860   0.83200982  -1.25653905
O    1.22004157   1.29359208   0.27536788
H    1.73425036   2.04775485  -0.01283289
H    0.32673564   1.49029677  -0.00666692
O    1.41873462  -1.08277275  -1.08587401
H    1.47666579  -0.24441045  -0.62758973
H    1.37592381  -1.73571392  -0.38725615
C   -0.37350758  -0.41255830   2.86599148
H   -1.20144182  -0.02647727   2.30888600
H    0.32286011   0.37572408   3.06241454
H   -0.72454216  -0.81737027   3.79216699
C    0.32107851  -1.52013910   2.05210269
N    0.83822942  -2.34478334   1.44612550
