18
Energy:   -141.63279588
O   -1.95353972   0.49087028  -0.22067055
H   -1.69983395   0.08302756   0.60729657
H   -2.89645079   0.33879361  -0.28409957
O    0.45298856   1.76707549  -0.57849967
H   -0.42743868   1.39296311  -0.54503857
H    0.31421796   2.71257966  -0.52375990
O    1.48503730   0.39697811   1.55528903
H    1.22321500   0.95371231   0.82198966
H    1.83922943  -0.39126416   1.14364122
O   -1.00060817  -0.53622629   2.11760577
H   -0.10601551  -0.21499090   2.00471806
H   -1.04251083  -0.81295907   3.03297181
C    0.54218275  -1.27337842  -2.44514200
H    0.95159901  -1.81292727  -3.27349310
H    0.58359742  -0.22355518  -2.64776254
H   -0.47556173  -1.56789190  -2.29561917
C    1.35811591  -1.58391339  -1.17651239
N    1.96561524  -1.81512079  -0.23195997
