18
Energy:   -141.28346044
O   -0.52639565   1.70172874   0.32703341
H    0.09135652   1.17903017   0.83830663
H   -0.32578400   2.60778788   0.56164725
O    0.16213362   0.46835523  -2.03336998
H   -0.53775154  -0.17184265  -2.16197518
H   -0.13922372   1.01012071  -1.30405128
O    2.35582829  -0.57896729  -0.86425847
H    3.07621611  -0.59654261  -1.49430953
H    1.60645078  -0.25730550  -1.36545591
O    1.36311193   0.12611292   1.57676789
H    1.78945592  -0.17260432   0.77350539
H    1.86730731  -0.28045736   2.28155117
C   -2.44976972  -1.06996551   1.15812808
H   -3.13087466  -1.82334123   1.49490880
H   -2.85996244  -0.10247643   1.35963711
H   -1.51752965  -1.17629676   1.67244435
C   -2.22084525  -1.22509146  -0.35684041
N   -2.05040057  -1.34058979  -1.48480331
