18
Energy:   -141.18816287
O    0.65703589   1.55200837   0.13455380
H    0.88643281   2.40744214  -0.22854668
H    1.07126470   0.92206006  -0.45520164
O    1.58486336  -0.27062595  -1.66623667
H    2.17983362  -0.96617254  -1.94633877
H    0.72572574  -0.54672365  -1.98543013
O   -1.85877161   0.53357927  -0.28520268
H   -1.03892556   0.99257857  -0.10243520
H   -2.05365475   0.05934511   0.52310071
O   -0.95761982  -0.94209337  -2.36264874
H   -1.63692594  -0.97448455  -3.03624050
H   -1.36095344  -0.46439382  -1.63783361
C    0.89714565  -0.45230335   3.03190940
H    0.94678792  -0.41001012   4.09992022
H    1.26725092   0.46375126   2.62109904
H    1.49318503  -1.26790855   2.67917112
C   -0.56483076  -0.65774638   2.59371068
N   -1.65333866  -0.81070806   2.26745182
