18
Energy:   -141.24310494
O    0.21105704   1.42378336  -1.59909635
H    0.57216148   2.28495763  -1.80936834
H   -0.54778108   1.61021732  -1.04625014
O   -1.67850749  -0.89340613   0.80640416
H   -1.15254850  -0.96394116   1.60303694
H   -1.08660946  -1.16145361   0.10352499
O    0.14032836  -1.29187655  -1.21376452
H   -0.16058667  -1.66896984  -2.04049461
H    0.24421959  -0.35861525  -1.39940340
O   -1.94463240   1.70129957   0.04593036
H   -1.92075665   0.80397370   0.37829773
H   -2.83783721   1.99806124   0.22014150
C    2.65544055  -0.71245543   0.99170076
H    2.76189615  -1.62569670   0.44438205
H    3.54712614  -0.52725169   1.55339060
H    2.48949950   0.09496193   0.30946924
C    1.45769234  -0.82670326   1.95292219
N    0.56591435  -0.91176597   2.66859524
