18
Energy:   -141.21316446
O   -0.44854827  -0.70167384   1.86757286
H   -0.81114762   0.17204319   2.01376491
H    0.39066804  -0.54394128   1.43505897
O    1.75530497  -0.23556048   0.30031870
H    1.32683428  -0.50571312  -0.51187725
H    2.52342033  -0.80286393   0.36663195
O   -1.67058655  -1.98043939  -0.18840820
H   -2.27014498  -2.64413778   0.15256978
H   -1.31869740  -1.55147912   0.59159113
O    0.30181249  -1.12494618  -1.86087511
H    0.00198345  -1.18360300  -2.76801003
H   -0.42574557  -1.47204734  -1.34472406
C    0.42832548   2.94220568  -0.42190172
H    0.42722187   4.01167537  -0.45557000
H    0.04016690   2.55602045  -1.34119111
H    1.42921333   2.59080623  -0.28175529
C   -0.45195984   2.46453853   0.74794094
N   -1.10737228   2.10889362   1.61894197
