18
Energy:   -141.25387636
O    1.17108146   1.21363355   0.58462722
H    0.40961783   1.41487351   0.04065344
H    1.33511371   2.01900233   1.07524561
O   -1.14195612   1.60265571  -0.83821866
H   -1.68409262   1.01093081  -0.31650847
H   -1.71398238   1.88614927  -1.55141514
O   -2.43460481  -0.14512702   0.80962116
H   -1.63613002  -0.46024564   1.23314225
H   -3.12527189  -0.30024737   1.45394135
O   -0.05048010  -0.87383695   1.89295009
H    0.27959448  -1.63805108   1.42044678
H    0.45832060  -0.14015019   1.54790308
C    1.94332964  -0.90159920  -2.00659193
H    2.69961968  -0.25938601  -1.60598270
H    1.11581226  -0.31205852  -2.34208541
H    2.34448146  -1.45452420  -2.83015143
C    1.46848414  -1.87860707  -0.91499797
N    1.11494009  -2.60603384  -0.10225665
