18
Energy:   -141.21887964
O   -1.40253773  -0.39861289   0.95529189
H   -1.85191117  -0.97059309   1.57749283
H   -0.52857447  -0.27926486   1.32701236
O    2.00964924  -1.69406628  -0.36928285
H    2.40475892  -2.48587098  -0.73420134
H    1.17515595  -1.60794280  -0.83019015
O   -0.45090548  -1.35239311  -1.43682846
H   -0.89585111  -1.07827842  -0.63488309
H   -0.51333902  -0.59378744  -2.01721741
O    1.20445997  -0.21130222   1.78105495
H    1.97217724   0.10583109   2.25673185
H    1.56481289  -0.73874253   1.06818446
C   -1.09807773   2.77826360  -0.20856907
H   -1.15457847   3.81946039  -0.44860467
H   -0.28396681   2.61128400   0.46540447
H   -2.01240897   2.46849636   0.25288702
C   -0.87251612   1.96587615  -1.49726942
N   -0.70457525   1.36101677  -2.45676541
