18
Energy:   -141.20603026
O    0.11177913   2.18019034   0.14240780
H   -0.42342522   2.93993343   0.37170798
H   -0.22352456   1.89851324  -0.70874512
O   -0.74839542   1.10462782  -2.21209652
H   -0.34614895   0.24785260  -2.06938753
H   -0.91274568   1.13861742  -3.15446882
O    0.49504959  -1.22596062  -1.57641977
H    1.00809785  -0.88668154  -0.84300103
H   -0.11997710  -1.84004460  -1.17532766
O    1.68857687  -0.01500051   0.59071102
H    1.16247449   0.78156259   0.52045893
H    2.59451495   0.29139841   0.55036553
C   -0.89770240  -1.17609926   2.55369080
H    0.12731074  -1.22891385   2.85611248
H   -1.51863717  -1.58011539   3.32577245
H   -1.16562986  -0.15516720   2.37815819
C   -1.09365826  -1.98798496   1.25984270
N   -1.23955631  -2.59247077   0.29651398
