18
Energy:   -141.21664929
O    1.84089080  -1.11599591  -0.32584192
H    2.75340766  -1.22388783  -0.05769239
H    1.33271055  -1.46491134   0.40644402
O    0.17848505  -2.00388648   1.64372950
H   -0.17493442  -2.73775001   2.14649272
H   -0.59341552  -1.55810144   1.29490712
O   -0.30692014  -0.15819272  -1.73845974
H    0.49999347  -0.45633392  -1.31865728
H   -0.39437649  -0.71438487  -2.51256150
O   -1.87983550  -0.68316692   0.45329463
H   -1.43699283  -0.50310329  -0.37598175
H   -1.99755562   0.17792547   0.85441022
C    0.43841253   2.90154124  -0.41146504
H    0.11636993   2.81992268  -1.42858212
H    1.29745982   2.28222392  -0.25855039
H    0.68984753   3.91933996  -0.19753678
C   -0.69635328   2.44549481   0.52444533
N   -1.54123800   2.10594752   1.22127315
