18
Energy:   -141.27643339
O    0.90542186   0.68454227   2.34475052
H    0.05396233   0.86370694   1.94581625
H    0.83149531   1.03103273   3.23396988
O   -1.46837610   0.96302541   1.07380060
H   -1.44871707   1.61382324   0.37215428
H   -1.47325734   0.12047889   0.61957227
O    1.56025826  -1.28358900   0.57078599
H    1.41164709  -0.59528270   1.21915394
H    2.49987177  -1.45978047   0.61889910
O   -1.07635801  -1.42524224  -0.23512477
H   -1.43820132  -2.21317208   0.17042156
H   -0.14417189  -1.45066377  -0.01922053
C    0.19546685   0.32035796  -2.90803743
H    0.66625317   0.74738978  -3.76879537
H   -0.54707464  -0.38396687  -3.22021969
H    0.92992544  -0.17725627  -2.30983199
C   -0.47048138   1.43564708  -2.08084753
N   -0.96631010   2.26603053  -1.46496705
