18
Energy:   -141.19004494
O    2.42214618  -0.73272436   0.91060054
H    3.00167237  -1.36532492   1.33509763
H    1.54156260  -1.07850966   1.05632950
O   -0.11967191  -1.64509552   1.07267116
H   -0.70749005  -1.16483540   1.65581086
H   -0.39419047  -1.38995244   0.19189116
O    1.75869241   0.56730379  -1.38629973
H    2.07775621   0.13456485  -0.59436087
H    2.35036485   1.30964728  -1.50910730
O   -0.68623368  -0.63593139  -1.41834132
H    0.13860542  -0.15373757  -1.47631912
H   -0.68616701  -1.20498703  -2.18802147
C   -2.45488690   1.95923457   0.12360946
H   -2.53271303   1.39244650  -0.78059990
H   -1.65646487   2.66590913   0.03398568
H   -3.37347157   2.47925318   0.29877209
C   -2.16993057   1.00946283   1.30188512
N   -1.95776763   0.30231459   2.17916491
