18
Energy:   -141.20648880
O   -2.00961490   1.24080913   1.13523445
H   -2.92086781   1.52725407   1.19687278
H   -1.94882997   0.81638183   0.27943161
O    1.09396847   0.75742019  -1.17566281
H    1.04344627   1.05199444  -0.26631944
H    1.44140016   1.51083537  -1.65303964
O    0.67670664   1.59770334   1.39912004
H    0.88953481   1.76635304   2.31699438
H   -0.27703125   1.51765323   1.38470299
O   -1.56831647   0.06861577  -1.27186806
H   -0.64891244   0.31567682  -1.37131103
H   -1.55302418  -0.88490527  -1.18943248
C    1.77861317  -2.45639073  -0.01904430
H    1.84721945  -2.07767342   0.97933767
H    2.27635362  -1.78718161  -0.68935221
H    2.24166412  -3.41977961  -0.06767327
C    0.29704739  -2.57806182  -0.42123704
N   -0.80604567  -2.66865148  -0.72068782
