18
Energy:   -141.22796330
O    0.47742146   1.71462770   0.16220795
H   -0.15931625   1.27657766   0.72692833
H    0.82921783   2.42289720   0.70149033
O   -1.16507375   0.27514851   1.81364955
H   -1.94621597   0.07410631   2.32904329
H   -0.63990178  -0.52419364   1.85209926
O    1.95234242  -0.58337469  -0.18986129
H    1.67652709  -0.89287543  -1.05262837
H    1.55297982   0.28253697  -0.10656443
O    0.51099743  -1.86519310   1.71225214
H    1.07027525  -1.48391663   1.03544463
H    1.05251003  -2.54245400   2.11760830
C   -1.55031190   0.74685535  -2.40503824
H   -1.14558881   1.73396062  -2.48702958
H   -2.03284045   0.63687602  -1.45637083
H   -2.26203199   0.58702530  -3.18785876
C   -0.41398330  -0.28551636  -2.52572775
N    0.43206500  -1.05416402  -2.61558657
