18
Energy:   -141.20924850
O   -0.13543642  -0.87318140  -2.47086368
H   -0.54458415  -0.94928998  -3.33285989
H   -0.75000026  -0.34720748  -1.95910733
O    1.99603307  -0.36228795  -0.84981289
H    1.30434165  -0.59949732  -1.46749123
H    2.68663033  -1.00698495  -1.00367335
O   -1.67385695   0.71281024  -0.90224172
H   -0.95937619   1.15556339  -0.44429113
H   -2.15401937   0.25508951  -0.21219272
O    0.57411590   1.63870195   0.38468654
H    0.97672617   2.45653764   0.09265638
H    1.13388241   0.95250658   0.02132832
C   -0.09587589  -0.67964602   2.95978344
H    0.33413720   0.29972177   2.93101465
H    0.59626079  -1.38525658   2.54995464
H   -0.31566317  -0.94304565   3.97329875
C   -1.39460565  -0.69455326   2.13233025
N   -2.36156898  -0.70565238   1.51625373
