18
Energy:   -141.32088849
O    1.48693808   1.41467939   0.27226142
H    0.54654296   1.51389148   0.12378303
H    1.83448822   1.12909781  -0.57265510
O    1.33012975  -0.58777145   2.09529130
H    2.00849511  -0.47021037   2.76029632
H    1.48214660   0.12047223   1.46958081
O   -1.23577894   1.30729567  -0.08337311
H   -1.33903688   0.49121523   0.40609841
H   -1.82861626   1.92259407   0.34811691
O   -1.27102875  -1.00498398   1.41961281
H   -1.58152170  -1.82707713   1.79907140
H   -0.36336675  -0.93216053   1.71470312
C   -0.71128291  -0.90545708  -2.64802677
H   -1.39175942  -0.15626213  -2.99524259
H   -1.04997414  -1.28648352  -1.70727909
H   -0.66506565  -1.70284586  -3.36001988
C    0.68904094  -0.28769966  -2.47753082
N    1.73164570   0.17224882  -2.35058883
