18
Energy:   -141.20060892
O   -0.06277902   1.16275504   1.89296225
H   -0.78016805   1.41546392   1.31182280
H   -0.42492664   1.25273557   2.77442946
O   -1.95297538   1.78595160   0.03283217
H   -1.46849039   1.39299018  -0.69317573
H   -2.47362084   2.47893627  -0.37328654
O   -0.37057725   0.66515827  -1.86834357
H    0.42923481   0.59616474  -1.34702563
H   -0.59500778  -0.23991778  -2.08444568
O    1.68707628   0.40671772  -0.06668905
H    2.41157455   1.03117507  -0.02944488
H    1.13534667   0.63433942   0.68165221
C    0.81500862  -2.91366666   0.38196509
H    0.31675943  -2.56665500   1.26300472
H    1.78743085  -2.47097408   0.32436833
H    0.90977644  -3.97871354   0.42188105
C   -0.00384236  -2.51737837  -0.86062843
N   -0.61351413  -2.22232372  -1.78579579
