18
Energy:   -141.19263431
O   -1.88569535  -0.84271732  -0.93043822
H   -2.26035831  -1.68197807  -1.19783476
H   -1.94857091  -0.84524976   0.02469114
O    0.11575582   1.13355422   1.63429695
H    0.02914915   1.32745906   0.70095240
H    0.99227483   0.75887216   1.72124308
O   -0.22753191   1.32287232  -1.08777672
H   -0.74942906   2.02345104  -1.47898596
H   -0.79236145   0.55118600  -1.12900359
O   -1.86964013  -0.69497063   1.78860105
H   -1.15720433  -0.05685172   1.82695906
H   -2.32085370  -0.60162993   2.62760383
C    2.67273297  -0.63278691  -1.50886283
H    3.68513360  -0.71147002  -1.84613734
H    2.19043214   0.17774569  -2.01415670
H    2.15424443  -1.54441123  -1.72101805
C    2.65602137  -0.37404510   0.00915345
N    2.64357884  -0.18140006   1.13938556
