18
Energy:   -141.30242476
O    1.72480753  -0.10387288  -1.85169877
H    1.50045446   0.62323604  -1.27100078
H    2.46142281   0.22099732  -2.36947201
O    0.35220356  -0.16077342   1.75636881
H    0.94677806  -0.39307995   2.46963363
H    0.43961700  -0.87752857   1.12799568
O    0.72308929  -2.03463484  -0.22433542
H    1.08996638  -1.43181507  -0.87105126
H    0.69299022  -2.87933239  -0.67357027
O    1.01875890   1.80646783  -0.03749894
H    0.81791209   1.21067117   0.68424807
H    0.18326703   2.22674696  -0.24133869
C   -2.83426691  -0.06855075   0.49359049
H   -2.75112514  -0.10746677   1.55964545
H   -2.28509294  -0.87974565   0.06316061
H   -3.86390758  -0.14630390   0.21306664
C   -2.26241500   1.26688228  -0.01749074
N   -1.83664526   2.26117287  -0.39801395
