18
Energy:   -141.20726564
O   -0.37564989   2.02598838  -0.02417373
H   -0.88465729   1.83801590  -0.81272281
H    0.43600691   1.53175435  -0.13896831
O   -1.33285666   0.66118526   2.12007363
H   -1.06551029   1.19364042   1.37090791
H   -1.69189177   1.29035631   2.74574881
O    0.51332303  -1.28480472   1.66188346
H   -0.16924332  -0.65411545   1.89115639
H    0.27628133  -2.07940467   2.14006125
O    1.76399683   0.29888051  -0.21386466
H    2.61255721   0.54569490   0.15391215
H    1.39598491  -0.31444984   0.42223672
C   -0.05832022  -1.56997956  -2.52462902
H    0.98057185  -1.33516807  -2.62693748
H   -0.38295261  -2.13014187  -3.37652754
H   -0.20716411  -2.15050152  -1.63820992
C   -0.87209773  -0.26619759  -2.42706499
N   -1.47799208   0.70452735  -2.35442413
