18
Energy:   -138.69986582
O    1.19663985   0.33904022   1.31298063
H    0.55137225   0.77064479   0.75299933
H    1.80870709  -0.07101410   0.70186607
O   -0.78450377   1.45935070  -0.26677326
H   -1.12708446   2.27493386   0.09886921
H   -1.44367358   0.80154858  -0.04536100
O   -2.46180938  -0.54141748   0.60989062
H   -3.01871289  -1.29018125   0.39671665
H   -1.88305906  -0.86201545   1.30162529
O   -0.58826852  -1.32967366   2.49617852
H    0.12113115  -0.77705494   2.16815945
H   -0.47074805  -1.33235459   3.44613305
C    1.59705934   0.29838799  -3.31644575
H    0.56055836   0.52950201  -3.18547926
H    1.70367532  -0.44020189  -4.08326849
H    2.12715157   1.18412158  -3.59818558
C    2.17246307  -0.24602135  -1.99579099
N    2.60087731  -0.65135885  -1.01250348
