11
Energy:   -204.06768086
O   -1.83525001   0.38574658  -0.48899734
H   -1.30715258  -0.22565267  -1.00235483
H   -1.66088847   0.14754160   0.42154551
O    0.95967187   1.81928727  -0.64188281
H    1.39952086   1.16784530  -0.09563371
H    0.11301466   1.42480027  -0.85112768
S    0.63376299  -1.33639022   0.73906918
O    1.71692328  -0.31925817   0.85000246
O    1.12829683  -2.64620095   1.24890456
O   -0.54094287  -0.90096510   1.54564908
O    0.23077470  -1.47913665  -0.68827938
