11
Energy:   -203.06820218
O    1.55301325  -1.96361146  -0.77745182
H    0.73307023  -1.70282793  -1.19687671
H    1.58109927  -1.45389398   0.03225869
O    0.40404223   1.95178816   1.58860577
H    0.22243274   2.12112615   0.66417379
H    0.10360340   1.05429906   1.73171993
S   -1.27824827  -0.00009560  -0.56070535
O   -0.80727115  -0.45263978   0.77850498
O   -0.74797490   1.36431506  -0.83872280
O   -0.78996684  -0.94488997  -1.60427848
O   -2.76778018   0.03283229  -0.57832511
