11
Energy:   -204.71567564
O    2.59623569   2.06170517   0.56611503
H    2.13114699   1.52061509   1.20419487
H    1.95622965   2.21729855  -0.12844585
O   -2.01918839  -2.60871160  -0.85093821
H   -2.50106421  -1.89147794  -0.43910884
H   -1.11688859  -2.29334115  -0.90220603
S   -0.30717446   0.29161615   0.15925725
O    0.21965454  -0.90263725  -0.55928992
O    0.41362031   0.45048052   1.45359762
O   -0.09889354   1.50667680  -0.67760994
O   -1.76307916   0.11194453   0.42033122
