11
Energy:   -202.05878223
O    0.57617011  -1.92966318  -1.51762681
H    0.09685555  -1.57719199  -0.76779120
H    1.48922579  -1.69625619  -1.35004891
O   -1.59812712   1.74534063  -0.67278755
H   -1.64718813   0.80909880  -0.47971733
H   -0.96423583   2.08747525  -0.04242449
S    0.58777344   0.14931453   1.35959225
O   -0.51586837  -0.56732304   0.66066069
O    0.35686887   1.61894696   1.27614410
O    0.62326972  -0.26745576   2.78967706
O    1.88682355  -0.18691003   0.71188717
