11
Energy:   -202.42417832
O   -1.05242430   1.44815135   0.63190287
H   -0.17972828   1.15300996   0.89175872
H   -1.56697510   0.64399568   0.56259930
O   -0.48072975   0.54791448  -1.88298666
H    0.08184567  -0.19529327  -1.66531036
H   -0.61267918   1.00102976  -1.05021554
S    1.04857455  -1.28340303   0.72089451
O    2.17046716  -2.08902870   1.27984376
O    1.21379265   0.14248169   1.12046394
O    1.05535231  -1.38665975  -0.76550790
O   -0.24531392  -1.80040537   1.24877823
