11
Energy:   -203.73902794
O    0.02731189  -0.11360519   2.07454467
H    0.57253837   0.42862505   1.50450406
H   -0.47005029  -0.66862860   1.47386862
O    1.09411253   1.50357074   0.07383885
H    0.16617702   1.72794044   0.00437097
H    1.19082971   0.71461787  -0.45948189
S   -0.72041298  -0.98171495  -1.31859975
O   -1.06680214  -2.02042969  -2.32913734
O   -1.15802275  -1.43645888   0.03114306
O    0.75355655  -0.76375945  -1.31555912
O   -1.41038357   0.29378824  -1.66084560
