11
Energy:   -201.92248237
O   -0.05666884   2.72103265   1.47589259
H   -0.87822002   2.54632917   1.01680196
H    0.59028241   2.17845888   1.02500498
O   -1.25748737  -2.57823052  -0.22585376
H   -1.39080384  -1.70784236  -0.60119762
H   -0.33548280  -2.59014665   0.03104588
S    0.91278520  -0.14609559  -0.76801648
O    1.55817204  -0.15442809  -2.11096338
O    1.41272068   1.01811032   0.01606841
O   -0.56480471  -0.03968339  -0.92771782
O    1.24505277  -1.40838120  -0.04945310
