11
Energy:   -203.30150629
O    0.82313562   0.51817422  -1.58997675
H    1.46711348  -0.03414573  -1.14673073
H   -0.01950474   0.10809262  -1.39498406
O    0.33149412   1.90884616   0.78849412
H   -0.13190123   1.19349977   1.22412715
H    0.52518266   1.57181568  -0.08622130
S   -0.81803854  -1.48707743   0.59625596
O    0.57924187  -1.96783006   0.40498557
O   -0.83918636  -0.42484393   1.64091511
O   -1.33229017  -0.93176521  -0.68720562
O   -1.67991953  -2.62387054   1.02632876
