11
Energy:   -204.62444560
O   -1.19433296  -1.18789680  -1.97147962
H   -1.61668561  -0.33375642  -1.88040662
H   -0.46157649  -1.16011030  -1.35623356
O    1.50909137  -1.02872938   1.89187232
H    1.35729344  -0.71385830   1.00078005
H    0.98662885  -0.44715069   2.44416843
S   -0.16971979   1.37209488  -0.01922822
O    0.65073153   0.17928792  -0.37160754
O    0.58765024   2.61154489  -0.35127385
O   -1.44268805   1.34555003  -0.79314501
O   -0.47457290   1.35199668   1.43911354
