11
Energy:   -203.80511717
O   -0.25932323  -2.06930279  -0.35480074
H   -0.85111817  -1.31697507  -0.35111232
H    0.56913772  -1.72459389  -0.02154397
O   -1.86334438   0.58771282  -0.26313219
H   -1.22505374   0.74645311  -0.95855897
H   -1.38419992   0.76250502   0.54686789
S    1.39264561   0.86253214   0.39248268
O    0.35441411   1.22366342   1.39834527
O    0.83362238   1.02605532  -0.97895933
O    2.57473768   1.75461959   0.55661167
O    1.80780829  -0.55420979   0.59393313
