11
Energy:   -203.24116166
O   -0.84535384  -0.39843251   1.83922023
H    0.04387367  -0.06860703   1.70990885
H   -1.19681808  -0.49437633   0.95406515
O   -1.54352331  -0.57490143  -0.81517114
H   -1.51525049   0.35703853  -1.03178232
H   -0.64690438  -0.88054088  -0.95261517
S    1.58112322   0.58460797  -0.51049748
O    1.10862426  -0.73331511  -1.02032440
O    1.62391940   0.55473991   0.97858827
O    2.94547979   0.86224008  -1.04111182
O    0.64646942   1.65476703  -0.95914198
