11
Energy:   -216.76364259
O   -0.00000953  -0.00001587   3.34278789
H   -0.46325725  -0.59865642   2.75690148
H    0.46324046   0.59863101   2.75690974
O    0.00001070   0.00001452  -3.34278786
H   -0.59863485   0.46326104  -2.75690561
H    0.59865247  -0.46323682  -2.75690556
S   -0.00000059   0.00000074  -0.00000002
O    0.74453575   0.96214455   0.86025862
O   -0.74454287  -0.96215052   0.86024514
O   -0.96214517   0.74454378  -0.86025202
O    0.96214992  -0.74453485  -0.86025183
