11
Energy:   -204.51090946
O   -1.94688188   1.83447802   0.72898601
H   -1.90469207   1.29739247   1.52018193
H   -1.24550778   1.49675142   0.17198784
O    0.88149170  -1.38545436  -2.24737235
H    0.40505263  -0.62053170  -1.92467902
H    1.37032646  -1.70179708  -1.48763575
S    0.68176584  -0.26305992   0.91767469
O    1.43155394  -1.47119352   0.47233099
O    1.59542939   0.63690323   1.67621620
O    0.14973511   0.45809160  -0.27269660
O   -0.44965511  -0.67604098   1.79484816
