11
Energy:   -203.56208840
O    0.56422212   1.52600481   1.27071435
H    0.08999004   0.71718744   1.46345835
H    0.59058701   1.56674998   0.31474543
O   -0.49404013  -1.05493091   1.44444751
H   -1.00080345  -0.80013384   0.67340845
H    0.32005705  -1.41185461   1.08936570
S   -0.02444094  -0.18054016  -1.74588852
O    0.46317625   1.17303728  -1.35838680
O    0.92119250  -1.21355040  -1.23719682
O   -1.37393138  -0.40963371  -1.15725306
O   -0.10820112  -0.27201382  -3.23071741
