40
Energy:  -1232.14401948
O   -2.09490148   1.19035621   2.65725454
H   -2.57121352   0.36008224   2.65529778
H   -1.48227597   1.11730426   1.92541764
O   -1.65515640   0.83875865  -2.89389285
H   -0.80286213   1.14155754  -2.58062115
H   -2.07793459   0.46847722  -2.11904957
O   -0.35231427  -1.58016429  -2.94705402
H    0.06881291  -1.34438193  -2.12044019
H   -0.89179209  -0.82061018  -3.16676538
O   -1.45453510  -2.77502252  -0.73945885
H   -1.11906153  -2.54118011  -1.60491079
H   -0.96691971  -2.21645625  -0.13409384
O   -2.98772333  -1.29180539   1.95447846
H   -3.24110068  -0.93024970   1.10517919
H   -2.03329337  -1.35252061   1.91436644
O    2.03071548  -0.99899344   2.73535501
H    1.20011720  -1.14688446   2.28317519
H    2.24270539  -0.08325698   2.55447143
O    3.32749052   0.87317280  -0.78971064
H    3.19920818  -0.03338056  -0.51053957
H    2.51363242   1.10377771  -1.23769304
O    0.85246915   1.53321062  -1.86001758
H    0.64813173   2.25600314  -1.26668037
H    0.63354494   0.74521801  -1.36265283
O    0.25993947   3.16768003   0.23674789
H    1.04614125   2.96897741   0.74531045
H   -0.26632826   2.36970478   0.28684418
O    2.14976044   1.59809068   1.56344150
H    2.69058914   1.40924146   0.79658289
H    1.31869659   1.15782608   1.38530723
O    2.77296919  -1.64129442   0.14919075
H    2.71310877  -1.56864748   1.10175099
H    1.90075926  -1.40297513  -0.16495188
O   -2.73154791  -0.38293666  -0.66919647
H   -2.45338116  -1.29218134  -0.77932923
H   -1.99216333   0.04342400  -0.23588494
C    0.15445048  -0.23311128   0.56708669
O   -0.40320185  -1.23669562   1.31461645
O   -0.74166686   0.79586075   0.44343771
O    0.47348764  -0.71340551  -0.67601947
