40
Energy:  -1231.50309524
O   -1.72150418   1.01760336  -2.44991485
H   -1.67912362   1.76035242  -1.84761960
H   -1.30144053   0.29993901  -1.97585130
O    0.46691147  -2.94247180  -1.51532577
H    0.04380243  -2.10658824  -1.31908801
H    1.05524877  -3.09317650  -0.77547500
O    1.79597056  -3.10619308   0.85501364
H    0.88572610  -2.95183385   1.10771919
H    2.14235662  -2.23508487   0.66157366
O   -1.03660131  -3.09166716   0.89929460
H   -0.81237847  -3.26901863  -0.01421645
H   -1.06785450  -2.13676200   0.95770029
O    2.21756923  -1.16528635  -2.70460805
H    1.57696492  -1.79398161  -2.37204194
H    1.79151975  -0.31378644  -2.60631462
O   -1.19091276   2.98222150   2.57745778
H   -1.39245764   2.81133780   1.65745219
H   -0.91633146   2.13351396   2.92463565
O    0.08684873   0.66810484   3.27608310
H   -0.28661690   0.23226800   2.51005339
H    0.80778378   1.19182406   2.92650810
O   -1.60236949   2.33794721  -0.02897178
H   -0.84646626   1.75494087   0.04135432
H   -2.36036424   1.75773210   0.04192420
O   -3.31771178   0.23327873  -0.29010328
H   -2.55685539  -0.09755412   0.18726348
H   -3.00780668   0.34325670  -1.18904461
O    2.77759149  -0.69571165  -0.04160513
H    1.94372409  -0.26525093   0.14707601
H    2.75208000  -0.86606845  -0.98317805
O    1.03495608   1.27292867  -2.32581558
H    0.91507852   1.04071983  -1.40497885
H    0.15740687   1.21610728  -2.70385072
O    1.45152823   2.60252154   1.86103542
H    0.60411990   2.98044444   2.09620612
H    1.24487414   1.94404648   1.19775831
C   -0.10985217  -0.38440290   0.25831686
O   -1.14414461  -0.31899746   1.15437470
O    0.52136572   0.83021709   0.20034242
O   -0.59924481  -0.70493270  -0.98085048
