40
Energy:  -1231.73903401
O    1.06903476  -2.57251379  -0.31953480
H    0.80517617  -1.66592625  -0.47672745
H    0.58161788  -2.83220296   0.46226963
O   -0.05347031  -0.77962052   3.16265939
H   -0.42024457  -0.37354926   2.37728393
H    0.88247542  -0.58376450   3.11932529
O    2.45840797   0.17651084   2.41590847
H    1.78020545   0.60384186   1.89278192
H    2.90199565  -0.40869126   1.80190495
O    2.95540226   1.11583780  -1.01707501
H    2.58915228   0.93495176  -1.88273837
H    2.19235041   1.18487172  -0.44329976
O    1.30643774   0.57482004  -3.15569766
H    1.00920637   0.11777006  -2.36893805
H    0.77439742   1.36992957  -3.18677454
O   -3.10043147   0.27810037  -1.87792982
H   -2.76772020  -0.47602678  -1.39128077
H   -2.34888870   0.86620241  -1.95243686
O    3.45517709  -1.28062774   0.26825911
H    3.32624275  -0.44838041  -0.18668283
H    2.65020782  -1.77156710   0.10322918
O   -0.92700189   1.92799355  -1.88628406
H   -1.05767672   2.57848688  -1.19634612
H   -0.49682767   1.19471934  -1.44640801
O   -0.73244164  -3.02087152   1.72255453
H   -1.24923296  -2.61942455   1.02398534
H   -0.46172339  -2.28626333   2.27327613
O   -1.94927481  -1.79327154  -0.43638972
H   -1.27750139  -2.07366039  -1.05794777
H   -1.56663999  -1.03472603   0.00455374
O   -3.22524218   1.41659859   0.62568942
H   -3.40365414   1.12350285  -0.26789656
H   -2.40244068   0.98694213   0.85940907
O   -1.17352823   3.22334715   0.49209545
H   -1.98570530   2.72823693   0.59917546
H   -0.48058685   2.56778248   0.57146206
C    0.27606046   0.18651550   0.39486214
O    0.80933230   1.44293313   0.51315957
O    0.24960748  -0.17561097  -0.92622205
O   -0.99954666   0.18322940   0.89545767
