40
Energy:  -1231.02725045
O   -2.31112766   1.11089621   2.29411110
H   -2.83811943   0.44787475   1.84811328
H   -1.41103721   0.91890687   2.03103481
O    0.04749361   2.98342735  -1.71682241
H    0.66091621   2.24897123  -1.73959894
H   -0.74770633   2.61995927  -1.32723307
O   -0.42323666  -2.52337767  -1.65582745
H   -0.34974909  -3.05269289  -0.86168841
H   -0.48826929  -1.62259096  -1.33867462
O    1.64933918  -2.80450704   0.85478810
H    2.01681356  -2.50705270   0.02249287
H    0.86849938  -2.26494696   0.97886861
O   -3.19052783  -0.63213278   0.36011835
H   -3.06611705   0.18704662  -0.11915080
H   -2.30361970  -0.92356728   0.57152261
O    2.17095042  -0.47347304   2.38456850
H    1.34256482  -0.12012038   2.06029849
H    2.23148643  -1.34355867   1.99021051
O    3.14484802   1.61831731   0.87885963
H    2.39355462   2.20970148   0.92419001
H    2.87904932   0.85312072   1.38881755
O    1.84291655   0.86646798  -1.43089954
H    2.35647422   1.10837262  -0.66020342
H    1.03127891   0.50509002  -1.07469433
O   -2.12777767   1.81447708  -0.41622814
H   -1.49474098   1.10478227  -0.52499248
H   -2.17918951   1.94723683   0.53032536
O    0.83450918   3.04861534   0.88849067
H    0.59544731   3.19935368  -0.02603610
H    0.49141152   2.17705257   1.08570677
O    2.23907826  -1.87360344  -1.71491188
H    1.31863048  -2.12584575  -1.78827103
H    2.21940481  -0.92284249  -1.60583201
O   -3.17121379  -2.53427032  -1.61895434
H   -3.29128668  -1.88495105  -0.92599053
H   -2.22550750  -2.55725591  -1.76504722
C    0.01076928  -0.43209095   0.44304608
O   -0.76127265  -1.42300380   0.98985626
O    0.00664724   0.65927517   1.27129833
O   -0.49757876  -0.07993353  -0.77979799
