40
Energy:  -1231.66985922
O    2.61618301   0.49369942  -1.69769645
H    1.82460663   0.70509284  -1.20277068
H    3.03461901  -0.20468383  -1.19430396
O    2.63208897   1.33841723   1.66641696
H    2.00565345   1.32725514   0.94275558
H    2.19369558   0.86091121   2.37071170
O   -1.89627544  -0.67949672   2.15953509
H   -1.09882808  -0.70966739   2.68811743
H   -1.58468469  -0.57005557   1.26111109
O   -0.30535563  -3.05843894  -0.70042941
H   -0.60967439  -2.68442706  -1.52731336
H    0.00586345  -2.30621064  -0.19691465
O    3.15694293  -1.09754944   0.49741474
H    3.27453038  -0.23625448   0.89813414
H    2.20795387  -1.20450139   0.43250804
O    0.63818877   0.04026104   3.04113013
H    0.68751982  -0.38847643   2.18674001
H    0.20129299   0.87383770   2.86647652
O   -0.55670596   2.44321989  -1.94341736
H   -1.45457538   2.49451279  -1.61565008
H   -0.09438080   1.91246357  -1.29473791
O   -2.75180917   2.09611374  -0.30746925
H   -2.35681602   1.24227685  -0.48403316
H   -2.26979126   2.43185742   0.44828651
O    0.66362245   0.63608864  -3.68145053
H    1.40170172   0.44431438  -3.10292355
H    0.12954283   1.26033317  -3.19021782
O   -1.00523428   1.93256916   1.88462789
H   -1.56165509   1.16830516   2.03472212
H   -0.42284496   1.66919995   1.17210337
O   -1.14611692  -1.27447178  -2.73884031
H   -0.49770511  -0.74969378  -3.20831027
H   -1.15506420  -0.90955027  -1.85397643
O   -2.17857496  -3.30646009   1.31673559
H   -1.55095939  -3.30567574   0.59401163
H   -2.14694176  -2.41465426   1.66302096
C    0.13289678  -0.11346302  -0.27750614
O   -1.23612613  -0.08050748  -0.31810879
O    0.53977521  -0.98311968   0.69986075
O    0.61155153   1.14059609  -0.00181507
