40
Energy:  -1230.90681337
O   -2.66648289   1.07741062   1.40530524
H   -3.11397439   0.50705304   0.78026490
H   -1.79272745   1.20100795   1.03448591
O    2.29228086   0.92429973  -2.04624665
H    1.75581677   1.67532765  -2.30000872
H    1.92034731   0.63418380  -1.21334208
O    1.50436950  -2.30732632   1.39376410
H    0.60346247  -2.56703903   1.58650143
H    1.41998797  -1.47409661   0.93025590
O   -1.20757043   1.09554488  -2.39075099
H   -0.76541936   0.29651778  -2.67761330
H   -1.00273057   1.16153927  -1.45805746
O    0.66584898   3.07417108  -2.49359901
H    0.88739932   3.18260486  -1.56872636
H   -0.05150382   2.44042679  -2.49583360
O    1.76977909  -3.24252554  -1.22010116
H    1.31841626  -2.54707393  -1.69848436
H    1.70305811  -2.98386640  -0.30093000
O   -3.04887826  -0.44180408  -0.90142352
H   -2.20421612  -0.67317995  -0.51510379
H   -2.83873110   0.22274008  -1.55751122
O   -1.49660717  -0.29404418   3.53340305
H   -1.89192584   0.17725944   2.80003554
H   -0.55409457  -0.17830713   3.41295895
O   -1.19631632  -2.40743716   1.80431100
H   -1.38410088  -1.78588847   2.50762177
H   -0.99344574  -1.85857270   1.04679982
O    1.25586448  -0.11259690   3.13330048
H    1.46223127  -1.00340643   2.85027578
H    1.05914630   0.35719685   2.32285144
O    1.49211923   3.05176857   0.11264050
H    2.26063244   2.48845850   0.02153029
H    0.75814344   2.44382514   0.20161332
O    0.49784431  -1.09440442  -2.45701413
H    1.22112259  -0.46758457  -2.47105907
H    0.10835675  -0.99200152  -1.58865652
C    0.03338686   0.19776558   0.49041149
O    1.38196736   0.13587474   0.25704797
O   -0.59021527  -0.83447519  -0.15974091
O   -0.45547062   1.39136899   0.02769185
