40
Energy:  -1230.94996800
O   -0.85853944   1.20692976  -3.39833728
H   -1.49400770   1.69242489  -2.87230837
H   -0.50467556   0.54878758  -2.80012236
O   -2.02056693   2.69328479  -1.24938027
H   -1.09530272   2.93514720  -1.28963645
H   -2.01600896   1.76477757  -1.01681757
O    0.55186111  -2.96314927  -1.19455923
H    0.28882159  -2.05807651  -1.36154837
H    1.34814591  -2.88850193  -0.66864085
O   -2.76782044  -1.19421945   1.27463317
H   -2.34551854  -0.75200196   0.53819807
H   -2.40253544  -0.76974733   2.05092058
O   -1.31045511   2.24620046   1.48188915
H   -1.84327579   2.58733012   0.76358244
H   -0.73382556   1.60351597   1.06874650
O    2.82123842  -0.25079937  -1.31468816
H    1.87661690  -0.30659677  -1.45894029
H    2.92887178   0.48461191  -0.71151558
O   -1.38678833   0.11877830   3.25376189
H   -0.63648012  -0.37794852   2.92736963
H   -1.41937363   0.89731051   2.69783237
O    2.64028228   1.87458549   0.38135726
H    2.33271651   2.39357378  -0.36180241
H    1.89514574   1.31943052   0.61115354
O    0.62291280  -1.36375169   2.06558881
H    0.50450045  -0.70805420   1.37836894
H    0.07120277  -2.09757567   1.79475627
O    2.66162608  -2.29898830   0.45836876
H    2.76281666  -1.59516998  -0.18243705
H    2.00949775  -1.96889060   1.07642701
O    0.69119483   2.49961429  -1.51837316
H    0.52234659   1.76711170  -0.92578386
H    0.45508559   2.16707964  -2.38434370
O   -1.02204763  -3.28632657   1.03480182
H   -1.68394306  -2.59490476   1.04268612
H   -0.56246944  -3.16913004   0.20336648
C   -0.35883740  -0.24209012  -0.44121492
O   -1.62936703   0.23578397  -0.62655028
O    0.33996201   0.61914024   0.36318576
O    0.27050010  -0.34738581  -1.65390917
