40
Energy:  -1231.70871221
O   -3.07714047   2.08795363  -0.91358755
H   -2.80479175   1.87437158  -0.02115226
H   -2.75286011   1.36021094  -1.44411999
O    0.33612913   1.43696169  -2.85983204
H    0.02664043   2.22657354  -2.41602834
H    0.63505383   0.86560271  -2.15242495
O   -2.06193517   0.11340145  -2.56273524
H   -1.22339550   0.55539775  -2.69586051
H   -1.86055479  -0.60934437  -1.96833111
O   -0.86138249  -0.20886151   3.31504557
H   -0.05367627   0.27236158   3.49467532
H   -0.80305362  -0.43788177   2.38747923
O   -2.05307699   1.65727923   1.62595510
H   -1.99926988   1.08753391   2.39324052
H   -1.26746132   1.45204903   1.11908191
O    0.54006838  -3.72435244   0.28448120
H    1.06312163  -3.08427988   0.76713455
H   -0.22984496  -3.23523747  -0.00574604
O   -0.60584496   3.30680132  -1.10727886
H   -1.51445508   3.00705289  -1.07881166
H   -0.12915431   2.67986305  -0.56326941
O    3.28517891   0.45023832   0.38439182
H    2.98237396   0.81624513   1.21540327
H    2.48871090   0.34535079  -0.13605909
O   -1.28407444  -2.10163516  -1.05276865
H   -0.98788971  -1.45328284  -0.41390581
H   -0.55025614  -2.19216359  -1.66067256
O    1.73401713   0.75290005   2.73808567
H    1.83675098  -0.18264255   2.56362183
H    1.21284201   1.07810301   2.00402070
O    1.90919536  -1.67100303   1.46847846
H    1.09893745  -1.25398058   1.17555142
H    2.60118719  -1.21131809   0.99301142
O    1.27768382  -2.40377423  -2.00934249
H    1.20413741  -2.98542254  -1.25269990
H    1.25128603  -1.52205706  -1.63771117
C    0.04411449   0.36299859  -0.08674371
O    0.45047775   1.48730398   0.58240847
O   -0.31858040  -0.60030010   0.81747244
O    1.07276687  -0.10277174  -0.86308931
