40
Energy:  -1232.86332678
O   -0.95726939  -0.92511908   2.50662214
H   -0.53797444  -0.12759183   2.82969159
H   -0.71610887  -0.96504849   1.58116059
O   -2.62202628   0.88866494  -2.03587375
H   -2.97941810   1.07659127  -1.16801050
H   -1.69092410   0.72827104  -1.88239936
O   -3.38794162  -1.49333890   1.36269836
H   -2.60343366  -1.30148052   1.87647795
H   -3.06444414  -1.62811913   0.47195961
O    3.53782035   0.30041867  -1.20537592
H    2.98954168   1.07420039  -1.33531512
H    3.02685880  -0.42035356  -1.57366594
O   -3.23795787   1.13658347   0.62573347
H   -2.28828614   1.14608165   0.50629630
H   -3.43441277   0.24591714   0.91616555
O    1.59715904  -3.08817116   0.14032799
H    2.21163502  -2.52825525   0.61482277
H    0.80759404  -2.55476180   0.04925973
O    2.48016058  -0.64825924   1.16419664
H    1.57950006  -0.67288209   0.84103075
H    2.98039465  -0.25213463   0.45069610
O    1.72820049   2.30294625  -1.75724236
H    1.11138922   1.57111335  -1.77125334
H    1.46858754   2.82106170  -0.99540947
O    0.54928461   3.33154171   0.48978434
H   -0.00053094   2.61716153   0.16792153
H    0.93462756   2.99250212   1.29774153
O    0.82200602   1.25856461   2.39082278
H    1.54984746   0.66658851   2.20097288
H    0.23998633   1.17318233   1.63571035
O   -2.31670978  -1.65966784  -1.12376444
H   -2.58820004  -0.86969931  -1.59117711
H   -1.46022577  -1.43939728  -0.75750243
O    1.86493388  -1.63768958  -2.16417898
H    1.14477617  -1.03617038  -1.97502462
H    1.83853859  -2.27548007  -1.45090594
C    0.15134673   0.17872693  -0.36411792
O   -0.04386289   0.23034227  -1.71917786
O   -0.08370587  -1.09491753   0.08273649
O   -0.71013280   1.04652911   0.25439043
