40
Energy:  -1232.39954387
O   -1.34100901  -1.65736439   2.08276064
H   -0.73851090  -1.20452965   1.49270253
H   -2.21209871  -1.41815071   1.76619880
O    2.11644484  -0.67711977  -1.50652613
H    1.51199746  -0.51086110  -0.78317748
H    1.55300118  -0.93844607  -2.23486098
O    0.22224869  -1.46320211  -3.35545851
H   -0.30443809  -0.66797381  -3.27517882
H   -0.06305149  -2.01457751  -2.62688400
O   -0.71728004  -2.76886303  -1.15232614
H   -0.08265904  -3.03019775  -0.48509889
H   -0.97870943  -1.88301910  -0.90099558
O   -3.32544995   0.06518218   1.18799347
H   -2.88173848   0.57596184   1.86508735
H   -2.67339279  -0.03082937   0.49385006
O    0.86953407  -3.05687453   1.05111247
H    1.03819739  -2.15634348   0.77393318
H    0.05573758  -3.00524737   1.55241255
O   -1.31434066   0.91403038   2.96095132
H   -1.03922502   1.20196015   2.09052632
H   -1.29552193  -0.04186197   2.91460983
O    0.05684017   2.77979885  -1.85080821
H   -0.31249918   2.26210130  -1.13539956
H    0.99019873   2.56761602  -1.84359030
O   -1.41403012   0.68924967  -2.88338143
H   -1.46198037   0.30117347  -2.00969414
H   -0.90275000   1.48943079  -2.76282170
O    2.68401585   2.00225916  -1.41467569
H    2.51531847   1.06486538  -1.50989100
H    2.45249391   2.19673378  -0.50648570
O    1.76648890   2.46935609   1.13117938
H    0.93830574   2.15672391   0.76702884
H    1.96768656   1.85198045   1.83445647
O    1.44104050   0.41995566   2.92565210
H    0.60831650   0.76697151   3.24562488
H    1.23597629   0.06252305   2.06169466
C   -0.26162953   0.31647524  -0.14801264
O   -0.60654483   1.46730625   0.51045513
O   -1.39536245  -0.38067141  -0.47318181
O    0.53145119  -0.45282007   0.66253526
