40
Energy:  -1231.18688425
O    1.18876099  -2.45557669   0.64482653
H    1.55625958  -2.09558215   1.45203193
H    0.56285548  -1.79402574   0.35016659
O    1.18711977   1.28862105   2.99402967
H    1.70985692   1.75014727   2.33830772
H    0.41637182   0.98368215   2.51528996
O    2.12280820   2.51101672   0.69776177
H    2.61893926   2.02041942   0.04247550
H    1.21782033   2.22271109   0.57898181
O   -0.35859396  -1.25363827  -2.76119473
H   -0.21955000  -0.38149375  -3.13033231
H   -0.51656837  -1.09774786  -1.83008028
O    1.52226730  -1.44369984   3.24335914
H    1.52007066  -0.49177869   3.14299405
H    0.61422530  -1.70351144   3.08782938
O   -2.90206852   1.96888534   0.88820055
H   -2.69426278   2.13462911  -0.03135240
H   -2.15619440   1.46644542   1.21600808
O    2.08832538  -2.05282267  -1.90748345
H    1.88498435  -2.24540290  -0.99217087
H    1.24083539  -1.85174011  -2.30441968
O   -3.19327459  -0.49886931  -0.30665602
H   -2.25696495  -0.68185454  -0.22872967
H   -3.33428245   0.27015969   0.24556044
O   -2.00633170   1.56788249  -1.70110073
H   -2.51411048   0.76918830  -1.55799187
H   -1.27491089   1.50046153  -1.08733378
O    2.00307095   0.67900201  -1.52152297
H    2.11125444  -0.26689776  -1.62052709
H    1.24790015   0.77474551  -0.94119368
O   -0.96309200  -2.24998507   2.42246479
H   -1.11208386  -1.36148129   2.09905437
H   -0.45004542  -2.67309509   1.73399332
O    0.12343740   1.34641421  -3.42033128
H   -0.65141972   1.49338670  -2.87790397
H    0.83416914   1.21466352  -2.79284900
C   -0.14100006   0.18653220   0.59410024
O   -0.98315177   0.31232218   1.66737363
O   -0.08260405   1.37660055  -0.08223252
O   -0.61071395  -0.79207780  -0.24224391
