40
Energy:  -1231.68271426
O   -1.22963092   0.18150700  -3.88440937
H   -1.70031427  -0.35023825  -3.24258694
H   -0.45813626   0.49791872  -3.41439718
O    0.87112873   0.96010640  -2.26706398
H    0.59017049   1.80438026  -1.91422414
H    0.53453450   0.31576592  -1.64435898
O   -2.27386675  -1.31588865  -1.81802873
H   -2.90102946  -0.97073620  -1.18260087
H   -1.41748556  -1.15383517  -1.42232459
O   -2.15250670  -1.73886525   2.29785833
H   -1.63015995  -0.95840832   2.11272949
H   -1.71971856  -2.43881984   1.80899245
O   -3.47254464  -0.16029697   0.39790086
H   -3.25751691  -0.83752477   1.03927239
H   -2.63564188   0.26269228   0.20579228
O    2.48487724  -1.90042546  -0.70624261
H    1.54301969  -1.73062438  -0.72367238
H    2.87895406  -1.04826412  -0.51981207
O    0.06689818   3.11474221  -0.77070934
H   -0.35995878   2.30442797  -0.49247237
H    0.80528415   3.21553259  -0.16999368
O    2.05223122   3.12485393   1.10543597
H    1.32193235   2.84425613   1.65694325
H    2.35374648   2.32224936   0.67982313
O    1.77745599  -2.14619794   1.92347549
H    2.18500960  -2.28868887   1.06917564
H    1.25452104  -1.35246668   1.81050839
O   -0.18684247   2.24669218   2.39235700
H    0.06654307   1.40193498   2.02031817
H   -0.88798275   2.55996431   1.82095983
O    2.62049892   0.80045391  -0.18798985
H    2.23545521   0.90245974  -1.05837367
H    1.90317485   0.47350766   0.35495045
O   -0.44092856  -3.23132110   0.73831133
H   -0.48480857  -2.44588318   0.19297321
H    0.30321990  -3.07798476   1.32051652
C   -0.42175394  -0.23665109   0.42563369
O   -1.04417734   0.90597123  -0.00327393
O    0.62517381   0.09398284   1.24522033
O    0.04737426  -0.93439799  -0.65642370
