40
Energy:  -1238.14630196
O    1.34481160   2.98368203  -0.72850456
H    0.76894788   3.23958413  -0.00799991
H    1.43477902   2.03498178  -0.63847377
O   -0.09100064   2.85694334   1.62562949
H   -0.37633384   2.06238284   1.17453035
H    0.72778763   2.60844544   2.05465911
O    2.15165924   1.51536064   2.45644188
H    1.60183506   0.83055365   2.83718405
H    2.14715638   1.33208571   1.51696230
O   -1.46142122  -2.53909720   2.47355161
H   -1.97202035  -2.13766381   1.77043597
H   -0.74983734  -1.92007681   2.63693455
O    0.54057301  -0.71392776   2.59747190
H    1.27517181  -1.21096978   2.23754737
H    0.16765084  -0.25699242   1.84356806
O    0.15645219  -3.42717693   0.44910617
H   -0.42498488  -3.25045129   1.18865389
H    0.17831925  -2.60511656  -0.04076159
O   -1.86429209  -1.03400960  -2.24735763
H   -1.09502751  -1.14807862  -1.68927869
H   -2.12537169  -0.12297323  -2.11288819
O   -2.56897563  -1.12669592   0.43709518
H   -1.79925165  -0.56783886   0.54403269
H   -2.56415502  -1.36709335  -0.48941315
O   -2.02265637   1.60324630  -1.51438339
H   -1.35704164   1.94088536  -2.11370696
H   -1.52362424   1.20007090  -0.80399731
O    0.11228764   2.33589778  -3.09614862
H    0.53668129   2.62568003  -2.28859173
H    0.34694235   1.41101430  -3.17204038
O    0.64256333  -0.36357996  -3.29819331
H   -0.27200269  -0.64005792  -3.35616552
H    0.85760035  -0.43897631  -2.36851255
O    2.38484428  -1.95632517   1.04000160
H    1.73385267  -2.63233691   0.85172018
H    2.07637765  -1.18639198   0.56221183
C    0.34940462   0.18470912  -0.40418606
O    1.61795575   0.43306254   0.04974895
O   -0.55673216   0.51884229   0.56760092
O    0.22541703  -1.14600968  -0.70683230
