40
Energy:  -1232.29677208
O   -2.63803588   1.51412595   2.17924806
H   -3.18331132   1.31851832   1.41724793
H   -1.77854899   1.15577443   1.95766666
O   -3.36138565   0.35287359  -0.24689151
H   -2.51764715   0.79879102  -0.32101864
H   -3.16739840  -0.44850736   0.23930739
O   -1.77898119  -1.14994421  -1.97761558
H   -1.00011480  -0.88866233  -1.48636128
H   -2.46711384  -0.56141171  -1.66723711
O    0.12100019  -3.35248766   1.52582259
H   -0.66979821  -2.89604110   1.23854873
H    0.84105373  -2.83645431   1.16324250
O   -2.01196453  -1.86913084   0.67783467
H   -1.91520375  -1.94250254  -0.27163139
H   -1.45510497  -1.12898282   0.91933041
O    0.61054847  -1.23207101   3.24412940
H    0.36325063  -2.08916384   2.89704510
H    0.20266038  -0.60466906   2.64728273
O    3.52807764   0.41158501  -0.40449623
H    3.10453803  -0.28127731   0.10224617
H    2.91310007   0.60073412  -1.11319719
O    1.57915647   0.95814641  -2.26963561
H    1.37398894   1.86207796  -2.03079281
H    1.06404672   0.42671094  -1.66261820
O    0.77103241   3.27188502  -1.02471428
H    0.07170996   2.63533428  -0.87644725
H    1.37768278   3.13580788  -0.29691610
O    2.17882942   2.25155298   1.12678660
H    1.33972318   1.79139471   1.14645713
H    2.76334972   1.66438860   0.64740590
O    2.07695974  -1.49945460   0.94490818
H    1.39476044  -1.11137054   0.39697869
H    1.82668320  -1.26835531   1.83943969
O   -0.31591474  -0.02528130  -4.04675450
H   -0.89629402  -0.43178844  -3.40321454
H    0.37976440   0.37376908  -3.52424021
C   -0.03834189   0.55017986   0.18518233
O   -0.96704895   1.31893699  -0.46556650
O    0.27171564  -0.54013528  -0.58434740
O   -0.55196041   0.13195890   1.38479370
