40
Energy:  -1232.12910868
O    0.39707742   0.63632225  -4.07974657
H    0.28684645   1.28976301  -3.38902509
H    0.40808708  -0.20186031  -3.61762035
O   -0.32679428   2.87629364   0.80263127
H   -0.48530945   2.89994587  -0.14105584
H   -0.24472792   1.94519942   1.00893327
O    0.45152510  -1.64948081  -2.52521809
H   -0.40475934  -1.97986943  -2.25346055
H    0.71625027  -1.05967199  -1.81933000
O    3.15078890  -1.24166925   1.04588064
H    2.48266878  -1.03560196   0.39213479
H    3.10020993  -0.52257299   1.67562200
O   -3.46666597   0.29416351  -0.59902613
H   -3.39876096  -0.62736407  -0.84884141
H   -2.56266338   0.60878931  -0.59435983
O    0.83725169  -2.06771822   2.29767000
H    0.46175220  -1.26682640   1.93187733
H    1.72742933  -2.09732420   1.94704329
O    2.19255674   2.38425579  -0.06058412
H    1.42595249   2.74761117   0.38272461
H    1.96424378   1.46906242  -0.22345259
O    2.43627312   1.06575211   2.35672310
H    1.57695250   0.71325971   2.12531645
H    2.66722842   1.63586926   1.62333512
O   -1.94888416  -2.01294426  -1.06959640
H   -1.47826508  -1.19063908  -0.93334771
H   -1.86417527  -2.47863218  -0.23761622
O   -2.41172531  -0.20250759   1.87764623
H   -2.91748832   0.01084686   1.09348075
H   -1.50694782   0.00403199   1.64323002
O    0.12526326   2.35310518  -1.92528648
H   -0.22791126   1.57729714  -1.48983098
H    0.99754283   2.46435490  -1.54715465
O   -1.73911428  -2.83201277   1.57929256
H   -2.07121962  -1.94335149   1.70664645
H   -0.80132184  -2.76583783   1.75928717
C    0.10674431  -0.21768337   0.09993780
O    1.32258607  -0.03695344  -0.50506126
O   -0.86892865   0.39001398  -0.64562574
O    0.13444133   0.33437455   1.35382980
