40
Energy:  -1233.18265267
O   -2.50331564   0.55104658   2.52443971
H   -2.23019599   0.17397947   1.68810372
H   -1.75243614   1.07173309   2.80956668
O   -2.33530491   1.49931010  -1.67778152
H   -1.74773793   1.41457245  -0.92690441
H   -2.60042506   0.60151963  -1.87756996
O   -1.26966029  -3.28280941   1.02448405
H   -1.43544255  -2.34008172   1.02093411
H   -0.83082218  -3.45244841   0.19089208
O   -0.11329028  -2.98011839  -1.45406355
H   -0.91815028  -2.65719622  -1.85922215
H    0.24230363  -2.22245025  -0.98960277
O   -2.12535102  -1.25429942  -2.23864938
H   -1.37479481  -0.80955357  -2.63247468
H   -2.00718410  -1.13568905  -1.29620575
O    2.10973599   0.04880900   2.93448784
H    1.72896396  -0.79617785   2.69523539
H    2.29108731   0.47598565   2.09731184
O    2.44312804   1.52741264  -2.30642142
H    1.61016610   1.12007074  -2.54407417
H    2.60792251   1.23195737  -1.41099927
O    1.00371031   3.19837407  -0.64797401
H    0.37355887   2.54316806  -0.34823064
H    1.47295174   2.77012450  -1.36396746
O    2.41236636   1.03773735   0.38814764
H    1.68251588   0.44823996   0.19829781
H    2.02325528   1.91222827   0.37865877
O   -0.03396350   1.83274637   2.68460090
H   -0.25152862   1.59318430   1.78376391
H    0.64424958   1.20819878   2.94189291
O    1.20604017  -2.28028879   1.70891451
H    0.40131120  -2.79618867   1.75881897
H    1.02641348  -1.61952476   1.04006700
O   -0.00448111   0.40606284  -2.63078342
H   -0.69850028   1.04490524  -2.46815004
H    0.18224706   0.03031707  -1.77044653
C   -0.37731601  -0.11035211   0.44331299
O   -1.58600644  -0.72355507   0.24329310
O   -0.48047613   1.21756367   0.12222660
O    0.57071139  -0.70045912  -0.35091491
