40
Energy:  -1231.04637407
O   -0.05881655   3.04882015   0.71383767
H    0.40222699   2.21514754   0.62077491
H   -0.97403697   2.83898080   0.52790523
O    2.23072761  -2.55691621  -0.74738059
H    2.44580327  -1.64878722  -0.96016226
H    1.92078151  -2.52440617   0.15766547
O   -2.07033883  -2.36497673  -0.18747302
H   -1.59707152  -1.68623182   0.29372886
H   -1.61920706  -2.42076823  -1.02985019
O    1.99849492   0.37086038   2.87776264
H    1.21958110   0.62749577   3.37138536
H    1.73050206   0.42660025   1.96053598
O    1.10775500   0.23027444  -3.55233432
H    0.74746249   0.99048436  -3.09571408
H    0.65635140  -0.51913163  -3.16393095
O   -4.12516386  -0.52421988   0.11105075
H   -3.48185064  -1.21595821  -0.04347442
H   -3.60033386   0.25882708   0.27725178
O    2.70723670   0.07126620  -1.32762067
H    2.05539644   0.28546436  -0.66019632
H    2.23859228   0.15891419  -2.15763398
O   -0.71220963   1.45742744   2.89757214
H   -0.61672330   0.67518266   2.35424230
H   -0.36225802   2.16753480   2.35950779
O    1.44380834  -2.24860679   1.95547877
H    0.68944259  -1.80041324   1.57300433
H    1.94702109  -1.55299418   2.37871849
O   -2.42506283   1.60633430   0.64344479
H   -1.81586583   1.06727228   0.13894207
H   -2.14965793   1.49240834   1.55306277
O   -0.09595642  -1.86624141  -2.20916100
H   -0.35046789  -1.13688536  -1.64392166
H    0.65656854  -2.26043213  -1.76808083
O    0.04419412   2.25376461  -2.02115244
H   -0.24558914   1.46260719  -1.56691964
H    0.32337720   2.84381100  -1.32105679
C    0.08905817  -0.25454821   0.20585640
O   -0.62260442  -0.61265659   1.32042049
O    0.97889702   0.73520055   0.53094561
O   -0.77146493   0.20267610  -0.75758854
