40
Energy:  -1233.53781349
O   -2.08269699   2.23541206  -0.63201082
H   -1.16593077   1.96754857  -0.56860195
H   -2.57528704   1.48666269  -0.29591370
O    2.39005735   0.29777287  -2.07141026
H    1.65634367   0.59850934  -1.53526320
H    2.58849687  -0.57710039  -1.73756841
O    2.38520729  -1.96192459   2.16239603
H    2.32625102  -1.01959970   2.31981207
H    1.47733929  -2.24377176   2.05028128
O   -0.33451888  -2.36887111   1.91597761
H   -0.32217423  -1.45307216   1.63778388
H   -0.73611881  -2.83670771   1.18380395
O   -2.83686490  -0.32347103   0.00785507
H   -1.99311096  -0.22099387   0.44809315
H   -2.61728432  -0.37727828  -0.92226374
O    2.28570251  -2.11129057  -0.63229780
H    1.44777717  -1.65285636  -0.69515525
H    2.50758836  -2.07922140   0.29827734
O    1.24620650   3.04069912   1.29788409
H    1.16895767   2.38265557   0.60705621
H    0.39516246   3.02987827   1.73587814
O   -1.34605836   2.46910088   2.02393244
H   -0.98902102   1.59438243   1.87023202
H   -1.71661992   2.72868322   1.18040830
O    1.62111664   0.68227777   2.69870613
H    0.92504105   0.36042870   2.12588522
H    1.80130002   1.56784349   2.38320787
O   -1.70133565  -2.86920664  -0.40509940
H   -0.97439537  -2.28246993  -0.61373716
H   -2.38588295  -2.29218366  -0.06646788
O   -1.63485372   0.16004258  -2.44494130
H   -0.98445731  -0.21143465  -1.84893709
H   -1.77919133   1.04844024  -2.11913753
O    0.55292563   0.34579776  -4.13543509
H   -0.25080272   0.26159045  -3.62244220
H    1.25616229   0.31242758  -3.48691642
C    0.34238969   0.08281312   0.11794207
O    0.34469220   1.28682278  -0.53575038
O   -0.04293756  -0.90619714  -0.74836065
O   -0.53424492   0.13635214   1.16980972
