40
Energy:  -1231.93137669
O   -1.69298348   2.07585328   1.06013782
H   -2.30791713   1.38845315   1.31620328
H   -1.13792963   1.66628475   0.39651090
O   -2.75996492  -0.01902491  -1.32019677
H   -2.58900338  -0.80369219  -1.84106264
H   -1.89188362   0.29423593  -1.06616065
O   -1.48617182  -2.02882788  -2.67316085
H   -1.07557674  -1.99245412  -1.80926243
H   -1.06828570  -1.32359275  -3.16737381
O    1.70842986  -2.13499877   1.82252451
H    0.83857735  -2.53423420   1.80839885
H    1.65665645  -1.42419716   1.18353122
O   -3.28241291  -0.19663421   1.36427206
H   -3.17381351  -0.15456884   0.41418337
H   -2.57910395  -0.77422902   1.66087379
O    0.67056664  -0.28377237   3.52732075
H    1.16178768  -0.90044485   2.98450513
H    0.69649290   0.53914410   3.03909114
O    3.15461507   1.02974563  -1.16840568
H    2.57162822   0.54417342  -0.58481523
H    2.69379519   1.85121850  -1.33887332
O    1.17609356   2.93773217  -0.73610912
H    1.32547082   2.91935128   0.20918471
H    0.68608490   2.13567261  -0.91728261
O    0.90235571   1.98714324   1.94456845
H   -0.02581797   2.17580291   1.80624638
H    1.09627724   1.27592524   1.33399884
O   -1.15799252  -1.81790291   2.07784530
H   -0.84173346  -1.57296187   1.20823852
H   -0.68757279  -1.23776790   2.67649419
O    2.06747589  -1.32785074  -2.12752719
H    1.38105209  -1.27446991  -1.46254245
H    2.59894070  -0.54420053  -1.98727969
O    0.11393009   0.09326414  -3.35411943
H    0.86420626  -0.47601848  -3.18313753
H   -0.14133271   0.41953573  -2.49120599
C    0.05429717  -0.15281139   0.04935402
O   -0.16360138  -1.40212689  -0.46899855
O   -0.30929218   0.79354570  -0.87222605
O    1.38314112  -0.00966294   0.35178167
