40
Energy:  -1238.45059680
O   -2.64340657   0.12226533   2.01367269
H   -1.81889396  -0.16353154   1.62031415
H   -2.78806760   0.99888539   1.65752341
O   -3.18032068   1.09561383  -1.02621347
H   -2.31436918   1.20492904  -0.63326305
H   -3.47005512   0.23203557  -0.73207340
O   -1.47127463  -1.92445306  -1.30685138
H   -1.04142057  -1.47197524  -0.58109581
H   -1.43885499  -1.30020692  -2.03176349
O    0.79227871  -3.45071525  -1.60923283
H   -0.04996976  -2.99916877  -1.55487170
H    1.41122007  -2.85595626  -1.18567032
O   -3.76272496  -1.35791812   0.02546309
H   -2.98776443  -1.65636716  -0.45055812
H   -3.41372889  -0.92206733   0.80293829
O    1.32236181  -1.64037069   2.29230463
H    0.58032255  -1.39048576   1.74169850
H    1.75104703  -0.81207730   2.50769005
O    3.70230084   0.74812137   0.04480991
H    3.28660211  -0.10178603  -0.10039278
H    3.14169426   1.37151352  -0.41707140
O    1.89539240   2.41816363  -1.11770279
H    1.55230812   2.92816943  -0.38393231
H    1.33925701   1.63975666  -1.14976323
O    0.72071436   3.29651110   1.21773497
H    0.08807166   2.70020546   0.81721702
H    1.30290938   2.72658559   1.72019465
O    2.06816737   1.04802396   2.20201889
H    2.75099527   0.97998987   1.53467395
H    1.25907912   0.82659824   1.74095631
O    2.27215681  -1.55852447  -0.27270945
H    1.58704835  -0.95374463  -0.55748937
H    2.03870859  -1.77809996   0.62924419
O   -1.28746570   0.30912237  -2.84580644
H   -0.58348715   0.31331297  -2.19724767
H   -2.04790737   0.65262143  -2.37679822
C    0.03184619   0.43979061   0.25322571
O   -0.90589486   1.43646030   0.18803640
O    0.52070736   0.19018200  -1.00208664
O   -0.54538726  -0.69782721   0.75363299
