40
Energy:  -1234.22364773
O   -3.05076630   1.95356786  -0.43699128
H   -3.15223771   1.04830131  -0.14300509
H   -2.18016448   2.20883740  -0.13183268
O   -1.63397566   0.88546555  -2.51212960
H   -2.22333776   1.29543217  -1.87903282
H   -0.99269250   0.41907041  -1.97597353
O   -2.22807604  -1.77899905  -2.05538460
H   -1.53483172  -1.85920847  -1.40024292
H   -2.12530894  -0.89445933  -2.40646902
O    2.45642702  -2.46702327   1.78560985
H    2.49939292  -2.25505382   0.85316428
H    1.53889201  -2.69293676   1.93833327
O   -3.12102548  -0.65444559   0.27489550
H   -3.02554983  -1.15075783  -0.53799465
H   -2.22457151  -0.52871791   0.58601391
O   -0.19520111  -2.70011377   2.49519898
H   -0.42016078  -2.46042056   1.59621502
H    0.00279701  -1.86717416   2.92326461
O    2.40918003   0.97462240  -0.83543780
H    2.39406893   1.38677375   0.02835312
H    1.59597241   0.47130921  -0.87545096
O   -0.43538191   2.40288122   0.22159192
H   -0.07681105   2.48548365  -0.66205711
H   -0.47979574   1.45914979   0.37531329
O    1.89365970   2.13139919   1.62085757
H    1.07240951   2.33300061   1.17237475
H    1.71590599   1.31785805   2.09285999
O    1.14447263  -0.22960039   2.79802166
H    1.76333351  -0.88282389   2.47161376
H    0.47882918  -0.16630614   2.11308043
O    2.54598943  -1.86405776  -0.92344403
H    1.59342886  -1.79972499  -0.85473083
H    2.84685455  -0.95565571  -0.94619832
O    0.61593378   2.53953480  -2.31457414
H   -0.11304011   1.94965582  -2.50659420
H    1.28259111   1.97686420  -1.92061774
C    0.07299626  -0.79096724   0.10527589
O   -0.49052544  -2.02867605  -0.06049071
O   -0.69998058  -0.04801539   0.95828710
O    0.15158232  -0.15914223  -1.10814968
