40
Energy:  -1231.14975468
O   -2.80197344   1.74920407   0.59128300
H   -3.18999753   0.96672804   0.19961934
H   -1.86599567   1.67101822   0.40671746
O    1.08044791   0.32889991  -3.18004634
H    1.29398481   1.20420070  -2.85680902
H    0.89308928  -0.17928520  -2.39082109
O   -0.91550983  -2.54821339  -1.61010366
H   -1.76134599  -2.12181473  -1.47234578
H   -0.27217519  -1.91113151  -1.29949285
O   -0.68682024  -3.34357966   1.03073650
H   -0.72422175  -3.41510425   0.07694553
H   -0.72908332  -2.40290166   1.20269750
O   -2.83739922  -0.68956458  -0.85580347
H   -2.53022062  -0.15376024  -1.58709470
H   -2.10876991  -0.68879198  -0.23505345
O    0.65203378   2.10734955   2.23411088
H    0.49480779   1.80474220   1.33971688
H   -0.08705559   1.76482971   2.73676277
O    2.67580848   0.10860064   2.34238619
H    2.32050609  -0.69343955   1.95934104
H    1.95641674   0.73798361   2.29154866
O    1.56381891   2.45222767  -1.48094320
H    2.30221980   1.94248169  -1.14754401
H    0.79578068   2.06506214  -1.06088133
O    3.10313148   0.47257766  -0.38570704
H    3.15033485   0.45338889   0.57013578
H    2.23192726   0.13262705  -0.58983602
O   -1.67002010   0.76994256   2.91123340
H   -1.20049106   0.18408768   2.31747554
H   -2.23006478   1.29378871   2.33837478
O    1.85994247  -2.27496610   0.98152423
H    1.12994479  -2.86260203   1.17650945
H    1.48587838  -1.61188201   0.40132823
O   -1.47929074   0.98173926  -2.50093346
H   -1.14097569   1.04806169  -1.60797428
H   -0.73477408   0.67310733  -3.01733750
C    0.15648915   0.03915313   0.26543019
O   -0.83612963  -0.70286854   0.84944232
O   -0.36173143   1.22848432  -0.17506674
O    0.67923644  -0.65273342  -0.79561103
