40
Energy:  -1231.32324234
O    0.61514530   2.67091284   1.50263646
H    0.41950917   2.28964369   2.35855245
H    0.72465551   1.91680368   0.92336213
O    3.05819084  -0.38348434  -1.33445148
H    2.43550774   0.00026704  -0.71701121
H    2.51059338  -0.78911804  -2.00663462
O    2.48662974  -2.38539566   0.44268919
H    1.57797974  -2.08464780   0.43095266
H    2.93749319  -1.81117441  -0.17636165
O   -2.62167746   1.82864899   0.14547781
H   -2.05490748   2.52292690  -0.19064989
H   -2.02086202   1.20401823   0.55178935
O    2.74340652  -0.10489174   2.11872837
H    2.10601199   0.25373498   1.50119543
H    2.84064505  -1.02086646   1.85840775
O   -0.02938581   1.28538687  -2.15171548
H   -0.85977302   0.80958442  -2.16906333
H    0.40402097   0.98269221  -1.35373907
O   -1.53587708  -2.78921500   1.14746787
H   -0.94053540  -2.30573478   0.57471399
H   -1.78936518  -2.15629597   1.81932287
O   -2.17147515  -0.25473496  -1.56891066
H   -2.48926589   0.46157923  -1.01924269
H   -1.41522065  -0.60255405  -1.09632960
O   -3.51396554  -2.49414011  -0.71402021
H   -3.15472234  -1.71022308  -1.12953226
H   -2.86693177  -2.73162643  -0.04980685
O    0.34335329   0.62665574   3.40770550
H   -0.12961661   0.39265667   2.60909687
H    1.24938693   0.37176852   3.23344303
O   -0.68730557   3.53710497  -0.75406794
H   -0.25125825   3.36188784   0.07983466
H   -0.42808028   2.80853144  -1.31817317
O    0.96146737  -1.21463185  -2.84029144
H    0.64844994  -1.43459943  -1.96287124
H    0.75090550  -0.28672183  -2.94459171
C    0.26065584  -0.43031883   0.56632356
O   -0.89811094   0.10893724   1.05970051
O    1.05778847   0.57072492   0.07684448
O   -0.03815118  -1.31046191  -0.44057401
