40
Energy:  -1233.13812880
O    2.12810275   0.84957219   2.29423674
H    1.89858187   0.57152508   1.40753396
H    1.43375509   1.46027451   2.54153384
O   -0.13664661  -3.34097372   1.56215249
H   -0.14710644  -2.49762919   2.01480295
H   -0.33398318  -3.12644765   0.65041312
O   -2.77849073   1.19476897   1.36570539
H   -2.20797768   0.63775843   0.83609613
H   -2.18803644   1.62180265   1.98638068
O   -0.47747779  -1.11219913  -3.40588490
H   -0.31470383  -1.66847495  -2.64411479
H   -1.07886950  -0.43906038  -3.08738203
O   -0.04425550  -0.81140023   2.53497283
H   -0.32746284  -0.58483616   1.64914318
H    0.85832605  -0.49682862   2.58618885
O    2.02967761  -0.22606350  -2.52848449
H    1.78204263  -0.13872582  -1.60800587
H    1.21111887  -0.43524604  -2.97841349
O   -2.13402974   2.89842115  -0.69700526
H   -1.23345026   2.58162327  -0.62752464
H   -2.61127314   2.41470996  -0.02284351
O    2.23979624  -2.54434669   0.40784030
H    1.54032220  -2.90170822   0.95488751
H    2.00106861  -1.62588483   0.28266535
O   -0.46380254   1.87182723   2.71722397
H   -0.27044966   1.93648521   1.78198825
H   -0.47918300   0.93133984   2.89464650
O    2.01714719   2.43790680  -1.71076563
H    1.43380952   2.19316336  -0.99239967
H    2.17186933   1.62010782  -2.18352110
O   -0.13949418  -2.44447096  -1.02588065
H    0.80303723  -2.54129896  -0.88990009
H   -0.34927572  -1.58873712  -0.65179087
O   -2.28881167   0.48719657  -2.02556186
H   -1.73028748   0.16189357  -1.31954448
H   -2.36321846   1.42687085  -1.85910547
C    0.14344300   0.47565230  -0.32225492
O    0.13144861   1.74422796   0.19497841
O   -0.92930131  -0.22517862   0.16267235
O    1.30414214  -0.15486907   0.04243745
