40
Energy:  -1231.39629932
O    2.17593774   0.42344261   3.41533908
H    1.27557394   0.56855747   3.12461833
H    2.69049626   0.41609626   2.60824094
O    0.09577442   3.00541895   0.95671190
H   -0.68797003   3.05354188   0.40929920
H    0.58943875   2.26484943   0.60445609
O    0.53062103  -1.91921264  -2.99667761
H   -0.38074556  -1.73074761  -3.22056087
H    0.73836577  -1.30109203  -2.29596306
O    1.98095588  -2.08212965   2.26980932
H    1.40629405  -1.77723721   1.56764394
H    2.00240049  -1.35699984   2.89427609
O   -0.34249700  -3.04466261  -0.66201305
H   -0.08955766  -2.26257412  -0.17151214
H   -0.03905861  -2.87695695  -1.55421919
O   -2.13982404   0.40561428   0.34433662
H   -1.36358990   0.22161521  -0.18465935
H   -1.81026048   0.46668457   1.24093582
O    0.37022346   2.51386320  -2.18437136
H    0.26316988   1.60151027  -1.91532951
H    0.99299549   2.87807860  -1.55529744
O   -0.34838139   0.74212549   2.41589569
H   -0.24104768   1.62352242   2.05833342
H   -0.04847067   0.16131025   1.71665391
O   -1.96746913   2.87762113  -0.81018407
H   -2.12907052   2.00502177  -0.45145409
H   -1.22584268   2.75952738  -1.40371243
O   -2.88379264  -2.10433799  -0.49587247
H   -2.02468573  -2.52594813  -0.51617155
H   -2.71488525  -1.23250418  -0.13864991
O    3.52912820  -0.15383180   1.08780652
H    3.20414353  -1.01005672   1.36618704
H    2.81559765   0.21630967   0.56809381
O   -2.02162223  -0.92341007  -2.82074004
H   -2.47842141  -1.40854605  -2.13356507
H   -1.34537538  -0.42966063  -2.35691514
C    0.85014612  -0.15898280  -0.47111373
O    1.41337985   0.99809208  -0.00110962
O   -0.18775064   0.14711094  -1.31145636
O    0.38210707  -0.89947624   0.58263629
