40
Energy:  -1232.85213528
O   -0.72685059   3.20795769  -1.09290347
H   -0.99327584   3.36545174  -0.18711925
H   -0.09602318   2.49027355  -1.03617520
O   -2.96844193  -1.92475490   0.32386479
H   -2.93109730  -1.02045665   0.63544447
H   -2.15909679  -2.32269611   0.64454390
O   -1.14092540   2.93923542   1.63969156
H   -1.82970133   2.27763571   1.57561822
H   -0.33928691   2.47527447   1.39813864
O   -1.37114477  -1.11090946  -1.79108836
H   -1.91102130  -1.40669406  -1.05809679
H   -0.65170539  -0.63092565  -1.38090015
O    0.56032635  -3.10101535  -1.45889885
H   -0.06435054  -2.42144943  -1.71227761
H    1.26139988  -2.62760252  -1.01100596
O   -2.66665649   1.34232141  -1.66992757
H   -1.98075432   1.99524089  -1.53040616
H   -2.19273728   0.52252945  -1.80983319
O    2.86252520   1.30434973  -1.94076345
H    2.01107384   0.93129573  -1.71252422
H    3.33996923   1.33757976  -1.11180338
O    3.46449575   0.77735070   0.72689834
H    3.34588470  -0.11181108   0.39290045
H    2.59046949   1.16592814   0.69060087
O   -2.64106039   0.69172203   0.99727073
H   -1.72118311   0.43017686   1.03791266
H   -2.77021752   0.97511995   0.09215421
O    1.86661980  -0.53342544   2.59574910
H    2.54343352   0.01945169   2.20525977
H    1.07951708  -0.34680390   2.08401328
O   -0.52584721  -2.81878107   1.02321275
H   -0.15339212  -3.07718233   0.18016005
H   -0.34920907  -1.88011958   1.08602522
O    2.34100367  -1.63856896   0.07046196
H    1.75784986  -0.97145474  -0.29164589
H    2.13722280  -1.65345461   1.00560025
C    0.15127219   0.67320034   0.08910924
O    0.99892363   1.58544158   0.66030213
O   -0.19082361  -0.27527404   1.01672209
O    0.77634245   0.07107026  -0.97131838
