40
Energy:  -1231.21753237
O   -1.76640547   0.07624694   2.65158242
H   -1.35825166  -0.29561592   1.86968708
H   -1.69971656   1.02331914   2.52976830
O   -3.11577727   0.26460680  -0.89379498
H   -2.35407041   0.66693936  -0.47646657
H   -2.83355912  -0.62641861  -1.10033429
O   -1.54783267  -1.84229891  -1.67771001
H   -1.14610472  -1.49328337  -0.88207525
H   -1.38655703  -1.17211521  -2.34184541
O    0.70855699  -3.32453333  -2.15285437
H   -0.13846435  -2.90107975  -2.01330600
H    1.33714748  -2.75644556  -1.70745328
O   -4.26758672  -0.04295757   1.56894686
H   -3.99546859   0.07190830   0.65845831
H   -3.44742598  -0.10068012   2.05908593
O    1.32703749  -1.98497198   1.80853820
H    0.56964832  -1.66488712   1.31849823
H    1.74069043  -1.19414331   2.15453403
O    3.65469697   0.71863616  -0.12241558
H    3.23873590  -0.10585028  -0.37426940
H    3.07927417   1.39607440  -0.47765898
O    1.81049878   2.52674533  -0.98609896
H    1.47693726   2.93359315  -0.18644690
H    1.25790250   1.75526720  -1.11136146
O    0.63650510   3.04698533   1.46272945
H    0.02317094   2.51038498   0.96062077
H    1.23598389   2.41644094   1.86181691
O    2.05643306   0.70844713   2.08337005
H    1.24386214   0.53311675   1.60879697
H    2.72982786   0.73742614   1.40371462
O    2.22753821  -1.53688769  -0.72027071
H    1.53453947  -0.90269814  -0.90408637
H    2.01984045  -1.87341097   0.15142050
O   -1.33090007   0.57790167  -2.96565309
H   -0.60625777   0.54470985  -2.34113433
H   -2.11115781   0.68819523  -2.42227012
C   -0.03270833   0.37693117   0.12478936
O   -0.98566398   1.36005858   0.17268940
O    0.46407659   0.28441420  -1.14868783
O   -0.59375513  -0.82032083   0.48478151
