40
Energy:  -1231.73897952
O    0.11676621   0.43298610   4.14985473
H   -0.19081196   1.13143992   3.57210930
H    0.41600369  -0.25542976   3.55590828
O   -0.71657501   2.28839651   2.28587203
H    0.05928587   2.73042871   1.94108328
H   -0.84696450   1.54166946   1.70138154
O   -1.66908178  -1.36250855  -2.87485498
H   -0.99045967  -1.00318382  -2.30337478
H   -2.25800170  -1.83072302  -2.28309456
O    1.94248667   0.77107430  -2.47978062
H    1.15581351   0.44035313  -2.04619014
H    2.65664797   0.55120868  -1.88156277
O    0.87297480  -1.43385358   2.25376002
H    0.05693934  -1.86685572   2.00310663
H    0.92616660  -0.67060930   1.67855514
O   -3.39473197  -2.14249889  -0.86126190
H   -3.41077251  -1.18649894  -0.90641327
H   -2.64525193  -2.34374614  -0.30089500
O   -2.97946923   0.51761263  -1.32772480
H   -2.29713482   0.55003071  -0.65720212
H   -2.54835379   0.13196244  -2.09038151
O    3.31528066  -0.28356341  -0.35385082
H    2.54989587   0.15888988   0.01310021
H    3.00578828  -1.16495091  -0.56266266
O    1.54145684   3.02834898   0.84100812
H    1.29510256   3.31275789  -0.03913561
H    1.39393350   2.08259125   0.83768689
O    1.45644806  -2.37188201  -0.29412368
H    0.98345745  -1.62407712  -0.65922582
H    1.53514924  -2.17369835   0.63902218
O    0.51545782   3.01216678  -1.73145687
H    1.14624512   2.40258351  -2.11453318
H   -0.04650546   2.46358763  -1.18420005
O   -1.14411625  -2.41489146   0.64940487
H   -1.14062711  -1.45990572   0.58442861
H   -0.36573853  -2.69119308   0.16565143
C   -0.10722488   0.51073423  -0.15399858
O   -1.18082835   0.19820418   0.63761934
O    0.00703206  -0.41728330  -1.15541137
O    1.03448204   0.50853542   0.60381451
