40
Energy:  -1234.08964753
O   -1.78021247   2.12075122   0.85713750
H   -2.33597721   1.40604362   1.16786318
H   -0.99430455   1.68671353   0.52518590
O   -2.50777670   2.10906165  -1.78795368
H   -2.24953643   2.17662582  -0.86872634
H   -1.79812688   1.61715699  -2.20106236
O   -0.51327756   0.54832724  -2.81901477
H   -0.61104666   0.05981348  -2.00168536
H    0.31075941   1.02452392  -2.71687941
O    0.57136445  -3.08024550  -1.20494504
H    1.37952766  -2.62008946  -1.43157358
H   -0.03793229  -2.38588674  -0.95423556
O   -2.94150642  -0.26227624   1.47141627
H   -3.24276269  -0.36596368   0.56879485
H   -1.99898653  -0.42403692   1.42992410
O    1.03684505  -2.87490103   1.49725695
H    0.54499969  -2.05531406   1.54821957
H    0.92060503  -3.16875828   0.59372609
O    2.47662203  -1.04482092  -1.35917512
H    2.93628557  -1.12380013  -0.52329023
H    1.59715931  -0.75024162  -1.12253149
O    1.87738276   1.61554847  -1.99674987
H    1.27276093   1.53315719  -1.25927040
H    2.36316949   0.79079736  -2.00210703
O   -0.18995188   1.54383505   3.12961293
H   -0.69511695   2.11427372   2.55026864
H   -0.12448225   0.71586233   2.65379074
O    2.19916413   1.28387707   1.70453718
H    1.65336641   1.50008516   2.46057340
H    1.57496835   1.06446631   1.01282163
O    3.26229316  -1.24480505   1.27801216
H    2.50944655  -1.82539746   1.38921596
H    2.91795491  -0.36906541   1.45334928
O   -3.29145504  -0.45396083  -1.20128545
H   -2.39930161  -0.73145784  -0.99322412
H   -3.20117202   0.45876808  -1.47515909
C    0.12834172  -0.36992579   0.19977697
O   -0.29678601  -0.52964532   1.49233817
O    0.29873474   0.96383294  -0.06319199
O   -0.80786851  -0.88867687  -0.65590283
