40
Energy:  -1233.61673343
O   -2.87985805   1.46568868   0.24292811
H   -3.01574935   1.17988123  -0.66044308
H   -1.94677740   1.32318439   0.40194026
O   -2.89318902  -1.24801205   0.56353206
H   -2.07768659  -1.25572822   0.06240524
H   -3.08565790  -0.31954272   0.69442246
O    0.21746021  -0.01563074  -3.40480017
H    0.53801598  -0.21840483  -2.52596088
H   -0.73600802  -0.02809363  -3.32128451
O   -0.06864915  -3.18524816   0.47416582
H   -0.16321168  -2.39738784  -0.06115267
H   -0.51242472  -2.97228649   1.29510578
O   -1.49540053  -2.26350904   2.65433221
H   -2.08232148  -1.98185767   1.95259996
H   -0.91378036  -1.51642186   2.79508223
O    0.01168063  -0.00293847   2.78348106
H    0.96357251  -0.10155387   2.80369727
H   -0.18931398   0.19902707   1.86967422
O    2.56913345   2.18393096  -1.56481320
H    1.73141215   2.60863951  -1.74941417
H    2.33772180   1.28071690  -1.34828407
O   -0.16317193   2.31969103  -2.02353873
H   -0.19129275   1.86339547  -1.18256582
H    0.11878211   1.65247521  -2.64928373
O    1.86200221   2.14753863   1.07276767
H    2.30799723   2.28683448   0.23735342
H    1.06742381   1.66569107   0.84320298
O    2.73377074  -0.12087421   2.36884774
H    2.48153503   0.67817303   1.90610321
H    2.63974757  -0.81551949   1.71703533
O    2.45701505  -2.06012933   0.40617544
H    1.71728070  -2.64506608   0.57010818
H    2.08185969  -1.33163272  -0.08858004
O   -2.26441749   0.58607928  -2.30147586
H   -1.78919273  -0.02642515  -1.74002096
H   -1.75743818   1.39668595  -2.25542531
C    0.18357111  -0.24212735  -0.15294602
O    1.29028557  -0.05191194  -0.93777695
O   -0.76384924  -0.93467536  -0.85996138
O   -0.32426818   0.97406058   0.22224243
