40
Energy:  -1231.13848326
O   -2.42931932  -1.82996107  -0.52167314
H   -2.98481360  -1.25522858   0.00495816
H   -1.54239774  -1.49631508  -0.38646103
O   -2.85426978   1.44312673  -1.53073813
H   -2.78503084   0.67300062  -2.09495759
H   -2.09806394   1.38181054  -0.94710734
O   -2.23395496  -0.78020997  -3.00258261
H   -2.33374989  -1.24032671  -2.16917670
H   -1.36921355  -0.37316762  -2.94994553
O    1.45963569  -3.03898331  -0.05915209
H    2.20874600  -2.44795607   0.01669241
H    0.71672964  -2.46291856  -0.23935157
O   -3.43680867   0.26650846   0.90501303
H   -2.51342709   0.15427703   1.13085019
H   -3.42505469   0.76102980   0.08553617
O    0.69689301  -2.23925088   2.44347756
H    0.99915420  -2.67570257   1.64699784
H    0.08215791  -1.57397918   2.13404877
O    2.62713116   1.32494918  -1.73800595
H    2.76888140   0.69527896  -1.03114377
H    1.77240855   1.09107198  -2.09992108
O    0.10487338   0.59028807  -2.56997174
H   -0.34757742   1.41199245  -2.37938831
H    0.06901356   0.10042940  -1.74839739
O    0.64317847   1.96406319   2.56399586
H    0.96002022   2.47086434   1.81633568
H    0.05338554   1.31463530   2.18108652
O    2.39738242  -0.13546587   2.92354905
H    1.81726765  -0.89038577   2.82458113
H    1.82341326   0.62349477   2.81977050
O    2.66031896  -0.56843788   0.22849277
H    1.72018752  -0.55042054   0.04943943
H    2.73186655  -0.35020590   1.15773310
O    1.12262182   2.90414479  -0.03701523
H    0.39362247   2.28572259   0.01141793
H    1.77102841   2.46796338  -0.58977786
C   -0.15972291   0.10926451   0.49745407
O   -0.90092204  -0.35911787   1.55016494
O   -0.80047430   1.17787495  -0.07228988
O   -0.01135517  -0.88465082  -0.43415718
