40
Energy:  -1236.22774160
O   -2.32424701  -0.53349807   2.02796920
H   -2.72670049  -1.19377767   1.46379380
H   -1.45613779  -0.39204869   1.65033140
O   -2.70598794   2.17101258   1.55255496
H   -2.55490353   2.24315815   0.61011113
H   -2.62312543   1.23560656   1.73797672
O    0.02569899  -1.92887853  -2.53121684
H   -0.35161074  -1.23531656  -1.99006899
H    0.96966074  -1.77425694  -2.49571724
O    0.06232931  -2.82605712   0.03239046
H    0.02271603  -2.72740473  -0.91888781
H    0.01014994  -1.93144860   0.36881990
O   -2.69619690  -2.33952329  -0.02404463
H   -2.38242317  -1.51515356  -0.39578708
H   -1.89952709  -2.82850213   0.18198635
O    2.75616657  -2.66105670   0.42104203
H    2.81484698  -1.79061721   0.81489931
H    1.81741688  -2.81124081   0.30957182
O    2.58939050  -1.23377665  -1.90908104
H    2.75597490  -1.79119896  -1.14897456
H    1.96955153  -0.57628065  -1.59327965
O    1.93207369   2.38269738   0.34614511
H    1.35189508   2.45646949   1.10389329
H    1.56971050   1.65830484  -0.16393353
O    0.29013055   2.85717007  -1.90499512
H    0.84832653   3.16814507  -1.19229347
H    0.25024555   1.90871343  -1.78223098
O   -0.02328473   1.99315364   2.26929935
H   -0.93095319   2.24648020   2.10138423
H    0.09593360   1.18395049   1.77209809
O    2.55165725  -0.13642339   1.42842993
H    1.63628305  -0.29445267   1.19745660
H    2.74049187   0.73440087   1.07880378
O   -2.31239246   2.21929274  -1.19522094
H   -1.52467301   2.69408619  -1.46036450
H   -2.01236591   1.32336569  -1.04182399
C   -0.26675212   0.33456132  -0.18963383
O   -1.29501852  -0.26428460  -0.86861113
O    0.83638607   0.40267375  -0.99929155
O    0.03111116  -0.40019120   0.92804072
