40
Energy:  -1238.43929242
O   -0.33599747  -0.84895773  -2.59647942
H   -1.06149746  -0.22458342  -2.59028819
H    0.08114442  -0.74064272  -1.74179096
O    0.44531118   2.41151808   2.61836495
H    0.69809189   1.57942747   3.01831365
H    0.42256807   2.22915558   1.67897232
O   -1.64747273  -1.05409292   3.23201728
H   -1.87881686  -0.19006366   2.89118714
H   -1.51069329  -1.59118500   2.45159731
O   -2.06703413   1.39161235   2.11506714
H   -1.31255802   1.90583607   2.40241993
H   -1.77516930   0.96763337   1.30804261
O    2.94035620   1.07317343  -1.12640648
H    2.59646141   1.95464876  -0.98159806
H    2.25874323   0.49138608  -0.79001521
O    1.79545323   0.53793446  -3.53463034
H    2.29600774   0.66248184  -2.72830225
H    1.06254723  -0.02177007  -3.27809286
O    0.96375044  -0.30859712   3.03361481
H    0.92582781  -0.07244892   2.10677731
H    0.07625726  -0.59917369   3.24374085
O   -2.01719358   1.22158754  -2.06997969
H   -1.30140829   1.81515466  -2.29705093
H   -1.74310540   0.81935827  -1.24577150
O    1.64049311  -2.33819593   1.24058716
H    1.44607709  -1.70781213   0.54700910
H    1.56280351  -1.83485606   2.05104700
O    0.35520246   2.55691938  -2.38810108
H    0.83086898   1.89487322  -2.88976640
H    0.31955371   2.20446745  -1.49886622
O   -1.43790484  -3.19508433  -1.68761060
H   -1.06826248  -2.41705777  -2.10506843
H   -1.38796755  -3.01079091  -0.74964789
O   -1.07600271  -2.38207870   0.91328613
H   -0.14540236  -2.58069032   1.01705633
H   -1.09322569  -1.49929719   0.54364845
C    0.17030294   0.33951041   0.33841479
O    0.41962686   1.65553837   0.05054957
O    0.98301377  -0.45663463  -0.42496779
O   -1.14088397   0.05250548   0.06237627
