13
Energy:    -77.09956377
C   -2.68194608   1.15074598   2.18326418
H   -2.55287984   1.01236118   1.13012994
H   -2.85107211   0.20263283   2.64950116
H   -1.80154844   1.59854149   2.59469858
C   -3.89140654   2.07000169   2.43579999
N   -4.79190483   2.75442935   2.62382438
C    2.67126770  -1.31823022  -1.99847830
H    2.33850272  -2.15141826  -1.41541282
H    1.92403652  -1.06838376  -2.72244059
H    2.84096451  -0.47894441  -1.35683867
C    3.98142061  -1.68659926  -2.71917490
N    4.95688900  -1.96086675  -3.25576629
Cl  -0.14232322  -0.12426985  -0.14910665
