13
Energy:    -75.84379996
C    0.58842713  -2.59502524  -0.30881652
H    0.84635746  -2.98346847  -1.27187622
H    0.96362934  -1.59742110  -0.21443234
H   -0.47606915  -2.58744329  -0.20069954
C    1.20926954  -3.48267550   0.78582119
N    1.67151494  -4.14357146   1.60082873
C   -0.69410822   2.51286744   0.07597384
H   -0.30741611   2.38657856  -0.91368293
H   -1.76235597   2.56091664   0.03806483
H   -0.39569203   1.68445899   0.68390996
C   -0.14267280   3.81776529   0.67992796
N    0.26789593   4.78932106   1.12959925
Cl  -1.76878004  -0.36230291  -2.08461819
