13
Energy:    -76.16299592
C   -0.32366692   2.14971293   2.86405461
H   -0.93620626   1.65877946   3.59115850
H    0.55032352   1.56111822   2.67805442
H   -0.87468423   2.26735227   1.95441731
C    0.09309268   3.53411627   3.39446842
N    0.40338915   4.56486749   3.78938561
C    0.17803622  -2.40091705  -2.58525317
H    0.34850365  -1.35678473  -2.74534293
H    0.98058983  -2.80877710  -2.00693061
H   -0.74436177  -2.53527415  -2.05986835
C    0.10517676  -3.12330097  -3.94335956
N    0.05092958  -3.66114864  -4.95453150
Cl   0.16887779   0.15025603   0.02374725
