13
Energy:    -75.16045773
C   -1.04220592   2.69660077   2.29379743
H   -0.52309767   3.35423898   1.62826096
H   -2.08078695   2.67641969   2.03720189
H   -0.63501980   1.71061594   2.21053605
C   -0.88059680   3.19822103   3.74081492
N   -0.76027147   3.57170011   4.81818521
C    0.96125615  -2.46749873  -2.47430941
H    0.94536264  -2.68496627  -1.42676206
H    0.17127006  -1.78502116  -2.70892704
H    1.90154150  -2.02719452  -2.73294959
C    0.76781199  -3.77047684  -3.27207343
N    0.62378402  -4.74060326  -3.86604500
Cl   0.55095226   0.26796426  -0.24772992
