13
Energy:    -77.13806067
C   -0.12776824  -1.49418580  -2.42178492
H   -0.54742002  -2.44490684  -2.67658300
H   -0.88812934  -0.86990507  -2.00104314
H    0.65725086  -1.63067724  -1.70763214
C    0.44072855  -0.82790895  -3.68846821
N    0.86400026  -0.33183556  -4.63157150
C   -0.13478987   1.12014579   2.55519397
H   -0.81955913   0.86657221   3.33730117
H    0.57554544   0.32936270   2.43278102
H   -0.67327226   1.26051854   1.64128408
C    0.60342757   2.42120921   2.92107512
N    1.15306400   3.38991006   3.19349026
Cl  -1.10307782  -1.78829906   1.04595728
