13
Energy:    -76.29388743
C    2.98924631   0.39853509  -1.95836579
H    2.45457737   1.24336106  -1.57718554
H    3.16316093  -0.30022534  -1.16691986
H    2.41287392  -0.07064730  -2.72814618
C    4.33801064   0.86358264  -2.53816364
N    5.34222700   1.20983168  -2.96984949
C   -2.96594752  -0.45894705   2.07611458
H   -2.90131812   0.51647096   2.51118117
H   -2.78897909  -0.39218719   1.02296484
H   -2.23180520  -1.09744232   2.52137624
C   -4.37028641  -1.03994925   2.32484880
N   -5.41588055  -1.47253180   2.51004273
Cl  -0.02587927   0.60014881  -0.02789787
