13
Energy:    -77.47278268
C   -2.70480615   2.19534035   1.14776974
H   -2.76405550   2.04370920   0.09022651
H   -3.13867976   1.35786173   1.65302446
H   -1.67940283   2.29429598   1.43700133
C   -3.47089333   3.47649917   1.52637575
N   -4.04128006   4.43038015   1.80826513
C    2.62990781  -2.25706067  -1.07528475
H    2.64783580  -2.40033839  -0.01507238
H    1.66201972  -2.51229221  -1.45337018
H    2.84202928  -1.23274410  -1.30040503
C    3.69184578  -3.15775697  -1.73303388
N    4.48250687  -3.82836631  -2.22275800
Cl  -0.15702764  -0.40952794   0.13726130
