13
Energy:    -77.16013529
C   -0.24122073  -0.96971368  -2.75064046
H    0.23710447  -1.72970321  -2.16881481
H   -0.58809903  -0.19089915  -2.10409388
H    0.45750686  -0.56547183  -3.45297042
C   -1.43605356  -1.57861474  -3.50774944
N   -2.32566091  -2.03196926  -4.07145149
C    0.61052212   1.10629366   2.65679656
H    0.74466813   0.06213252   2.46540024
H    1.56453346   1.56665718   2.80788227
H    0.12281166   1.56238343   1.82072257
C   -0.25367406   1.29009782   3.91813750
N   -0.89710741   1.42694838   4.85726317
Cl   2.00466899   0.05185890  -0.47048180
