13
Energy:    -74.56344246
C   -1.93593120  -0.16112775  -3.26747484
H   -1.59851279   0.58484777  -2.57858478
H   -1.09256374  -0.68133544  -3.67122525
H   -2.57260344  -0.85450799  -2.75877906
C   -2.71904947   0.51188574  -4.41000651
N   -3.30211661   1.01297488  -5.26067327
C    2.02217025   0.00464957   3.16162405
H    1.29034469  -0.77593515   3.16598737
H    2.77885185  -0.21989622   2.43918981
H    1.55252920   0.93245379   2.90960082
C    2.66232929   0.11594181   4.55783694
N    3.13895679   0.19880394   5.59738091
Cl  -0.22440482  -0.66875494   0.11512381
