13
Energy:    -75.64562639
C   -0.38338712   0.23869755   3.44626184
H   -0.37699108  -0.67426354   2.88826424
H    0.51606741   0.78362213   3.24893508
H   -1.22822448   0.82791196   3.15647690
C   -0.47120068  -0.07963386   4.95044065
N   -0.53658187  -0.31664605   6.07037015
C    0.38636634  -0.10305183  -3.41050771
H   -0.20527769  -0.98727026  -3.29642312
H   -0.17964293   0.74809657  -3.09415506
H    1.27018696  -0.18574124  -2.81307766
C    0.78048140   0.06355552  -4.88987085
N    1.07391797   0.18760227  -5.99132396
Cl  -0.64571423  -0.50287920  -0.26539052
