13
Energy:    -79.44901304
C    0.98591226   1.43995908  -3.04267697
H    0.72820455   2.21288373  -2.34908169
H    1.79173544   0.85863157  -2.64568024
H    0.13715795   0.80898565  -3.20512004
C    1.41860819   2.07233363  -4.37852003
N    1.74076998   2.54316522  -5.37311590
C   -0.98586000  -1.44001012   3.04266973
H   -0.19556663  -0.74046307   3.21865409
H   -1.81865492  -0.93365189   2.60113484
H   -0.64249231  -2.20676682   2.38003720
C   -1.41888311  -2.07205691   4.37856188
N   -1.74128850  -2.54264448   5.37319431
Cl   0.00035710  -0.00036560  -0.00005720
