13
Energy:    -76.95690949
C   -1.69413063   2.62524124  -0.47342335
H   -0.87306341   2.17170446   0.04140983
H   -1.49654532   2.63069729  -1.52500757
H   -2.58719870   2.06812392  -0.28120265
C   -1.87487868   4.07197758   0.02244368
N   -2.00945383   5.14913854   0.39163923
C    1.52754697  -2.74872720   0.20433261
H    1.98307316  -2.25856261  -0.63061335
H    1.00325659  -2.02914167   0.79780994
H    0.84020122  -3.48909976  -0.14823425
C    2.61578203  -3.42428125   1.05930115
N    3.42602249  -3.92726194   1.69586409
Cl  -0.86061190  -0.83980862  -1.15431936
