13
Energy:    -75.59643205
C   -2.70037291  -2.58110630  -0.10121666
H   -2.99708556  -1.72802291   0.47246489
H   -3.23745891  -2.59298164  -1.02657967
H   -1.65006125  -2.53010567  -0.29906365
C   -3.01199037  -3.86522211   0.68969493
N   -3.24400374  -4.82130470   1.27856456
C    2.51067789   2.61976531  -0.24274362
H    2.86638833   2.27633457  -1.19165120
H    1.49715383   2.94883734  -0.33959225
H    2.55993223   1.82065892   0.46711700
C    3.38654991   3.79054903   0.24069581
N    4.03867644   4.66225073   0.60063844
Cl  -0.01840591   0.00034742  -0.54832858
