13
Energy:    -76.65825161
C    2.10035748   2.34952870  -1.37154581
H    2.24729105   1.29048794  -1.32979221
H    1.15226940   2.56065144  -1.82038351
H    2.12334676   2.75215130  -0.38045266
C    3.22033570   2.99042239  -2.21208377
N    4.05421039   3.46759688  -2.83790249
C   -2.24174555  -2.20665566   1.46694973
H   -3.05297081  -1.85316321   0.86540434
H   -1.50898399  -2.67081156   0.84043646
H   -1.79727966  -1.38320631   1.98587201
C   -2.76851606  -3.23253632   2.48757781
N   -3.16072065  -3.99635111   3.24748181
Cl  -0.36759405  -0.06811448  -0.94156170
