13
Energy:    -74.37571036
C   -0.91532865   1.41583281  -1.65449167
H   -0.30697198   0.71311282  -2.18457369
H   -1.88470535   0.99439468  -1.48836578
H   -0.45952238   1.64381750  -0.71366081
C   -1.05175024   2.70565492  -2.48476155
N   -1.15332231   3.66598612  -3.10293521
C    1.11137240  -1.64018159   1.60112322
H    1.81643952  -1.17746914   0.94258110
H    0.12050021  -1.34081313   1.33010677
H    1.19620753  -2.70401943   1.52397947
C    1.40061939  -1.20587644   3.05002460
N    1.61597692  -0.88251651   4.12879754
Cl  -1.48951507  -2.18792262  -0.94782400
