13
Energy:    -74.87015565
C    1.34421155   2.02324693   2.76106126
H    0.36030519   1.87176759   3.15333981
H    1.67135150   1.13336316   2.26509208
H    1.32925217   2.83502492   2.06414533
C    2.31099628   2.35367848   3.91333826
N    3.03081145   2.59969979   4.77126086
C   -1.43841100  -1.70663140  -3.03251176
H   -0.44559255  -1.91022338  -2.68934706
H   -1.97478550  -1.17276229  -2.27608247
H   -1.39370809  -1.11496024  -3.92291952
C   -2.15968914  -3.03355012  -3.33358409
N   -2.69671350  -4.02150143  -3.55774612
Cl   0.06197163   0.14284799  -0.11604658
