13
Energy:    -74.27653679
C   -1.99888353   0.11468410  -2.45394477
H   -0.95650621   0.34401762  -2.52981201
H   -2.13554347  -0.70546486  -1.78046216
H   -2.52639129   0.96989638  -2.08618586
C   -2.54322363  -0.26585037  -3.84336457
N   -2.94850958  -0.54917558  -4.87785076
C    1.94662406  -0.02840373   2.46207002
H    2.39159153   0.93735078   2.34281251
H    0.92016874   0.08399686   2.74252441
H    2.00730142  -0.56555587   1.53866062
C    2.69620318  -0.80704498   3.55908823
N    3.25429890  -1.38677878   4.37586816
Cl  -0.10713011   1.85832842   0.55059618
