13
Energy:    -76.70620226
C    1.77660334   1.74501846   2.22151718
H    1.59027347   0.83189802   1.69578682
H    2.39185097   2.38272427   1.62176660
H    0.84754757   2.23496844   2.42573145
C    2.49642952   1.43624740   3.54745485
N    3.03237283   1.20635331   4.53467571
C   -1.77330838  -1.42360252  -2.36774177
H   -0.73008151  -1.24731125  -2.52742668
H   -1.94960170  -1.60312711  -1.32774625
H   -2.33196528  -0.56664489  -2.68146963
C   -2.21699709  -2.65232954  -3.18319885
N   -2.54734350  -3.56717266  -3.79034370
Cl  -0.58578022   1.22297807  -0.16900571
