13
Energy:    -77.37202603
C   -2.19796678   1.97549511  -0.07798439
H   -2.15118330   1.12644507  -0.72746535
H   -2.96785689   1.82579243   0.64985998
H   -1.25754782   2.09772466   0.41756702
C   -2.51073466   3.23703548  -0.90399416
N   -2.74360456   4.17630963  -1.51899598
C    1.99404932  -2.16822819   0.32573303
H    1.66982056  -3.03300865   0.86603911
H    1.20087209  -1.82299989  -0.30401803
H    2.26294477  -1.39632967   1.01621620
C    3.21527238  -2.53141895  -0.53931420
N    4.12452845  -2.80183098  -1.18338119
Cl  -0.63859355  -0.68498605   1.97973796
