13
Energy:    -74.47394741
C   -0.09824051  -2.43016419   1.65178695
H   -0.49101425  -1.86459863   0.83278477
H    0.75992807  -2.98020860   1.32636886
H    0.18263296  -1.76561648   2.44196764
C   -1.17231093  -3.40895672   2.16162802
N   -1.97200518  -4.13771225   2.54122788
C    0.58973648   2.60587940  -1.68576006
H    1.36415303   3.22492823  -2.08819977
H    0.92950557   1.59216044  -1.64298246
H    0.34139990   2.94069746  -0.70030336
C   -0.65644114   2.69202178  -2.58643804
N   -1.58427702   2.75615870  -3.25703374
Cl   1.80693302   0.77541087   1.00495330
