13
Energy:    -75.18301157
C   -1.29693637   0.49700925  -2.78620481
H   -0.27537508   0.43363349  -3.09812823
H   -1.61228131  -0.45089784  -2.40289187
H   -1.39107407   1.23997011  -2.02197556
C   -2.17787365   0.88319303  -3.98887335
N   -2.83377150   1.17072440  -4.88431473
C    1.25807393  -0.46380733   2.78936563
H    0.95593983   0.56073060   2.72661862
H    0.44037400  -1.09458591   2.50939364
H    2.08218743  -0.63375124   2.12841548
C    1.68369119  -0.78593484   4.23390147
N    2.00058259  -1.02577342   5.30942407
Cl   1.16646300  -0.33051031  -0.51473036
