13
Energy:    -74.34125615
C   -2.37103323   0.36530747   2.12790892
H   -3.17472471   0.95442092   1.73813266
H   -2.31416143  -0.55926453   1.59234258
H   -1.45058162   0.89935513   2.01627995
C   -2.62093386   0.07948711   3.62037546
N   -2.80699625  -0.13331915   4.73158465
C    2.24586547  -0.26397164  -2.16407798
H    1.46845874  -0.99720247  -2.11011948
H    1.83252340   0.67163949  -2.47821052
H    2.69567826  -0.14945511  -1.19999629
C    3.31226133  -0.72006698  -3.17718060
N    4.10624152  -1.05965069  -3.93148155
Cl  -0.92259763   0.91272044  -0.76555779
