13
Energy:    -74.90431321
C    2.27201520   1.71358354  -2.29102368
H    1.73564335   0.78780823  -2.30308574
H    1.58002974   2.52568034  -2.21006693
H    2.93892736   1.72852245  -1.45442097
C    3.08007798   1.85569501  -3.59426536
N    3.68171745   1.96150345  -4.56458803
C   -2.42436229  -1.31556290   2.46065754
H   -3.21815613  -0.60079861   2.52313571
H   -2.29501349  -1.61681121   1.44212063
H   -1.51814056  -0.87448087   2.81997345
C   -2.77234058  -2.54554738   3.31952264
N   -3.03142624  -3.46132674   3.95898676
Cl  -0.02897179  -0.15826530  -0.10694601
