13
Energy:    -76.59299592
C   -0.91720548   3.13308500  -0.83997672
H   -0.46013131   3.29182527  -1.79432725
H   -1.76738209   2.49341843  -0.95366710
H   -0.21195484   2.67479489  -0.17854586
C   -1.36646635   4.48485698  -0.25476120
N   -1.70096148   5.49131265   0.18095836
C    1.04999635  -3.16144145   0.61870596
H    0.47828078  -2.35529536   1.02879129
H    0.97922036  -3.14201593  -0.44877355
H    2.07418843  -3.05678346   0.91021308
C    0.50063198  -4.50027907   1.14531076
N    0.09160523  -5.49710453   1.53739197
Cl   1.25017842   0.14362659  -0.95131975
