13
Energy:    -75.78919277
C   -1.32326019  -2.51004374  -1.76115404
H   -1.02798208  -3.34671126  -1.16307505
H   -2.11858089  -1.98602757  -1.27353622
H   -0.48937834  -1.85219404  -1.89066824
C   -1.80374003  -3.00687220  -3.13734465
N   -2.16147912  -3.37678357  -4.16198112
C    1.56545016   2.36579167   1.76241139
H    2.56266656   2.20932138   1.40747947
H    0.88958209   2.37879069   0.93299444
H    1.29600191   1.57393458   2.42968875
C    1.49075269   3.71196773   2.50660915
N    1.43513703   4.71425700   3.06069821
Cl  -0.31516980  -0.87543067   1.28787791
