13
Energy:    -75.24779683
C    0.47094337  -1.21251491   2.52043801
H    0.78346066  -1.04096672   1.51157511
H   -0.02388674  -0.34034090   2.89374051
H   -0.20189863  -2.04400295   2.54890483
C    1.70172925  -1.51797396   3.39420050
N    2.61810528  -1.74540212   4.04475639
C   -0.62006515   1.33651405  -2.37152853
H   -1.60787093   0.97219329  -2.18071369
H   -0.47488628   2.26158161  -1.85377164
H    0.09678745   0.61977260  -2.02903307
C   -0.43904382   1.56103013  -3.88428224
N   -0.30426521   1.72819255  -5.01059615
Cl  -1.99910927  -0.57808267   0.41630998
