13
Energy:    -75.87327877
C    2.03089787   2.87534260  -0.40654367
H    1.88374503   2.57989586   0.61127628
H    2.00846142   2.01025996  -1.03585101
H    1.25256129   3.54904253  -0.69846773
C    3.39520496   3.57601431  -0.54555922
N    4.41099360   4.09769625  -0.64906262
C   -2.25105308  -2.60906365   0.53784949
H   -2.47053717  -2.08107002  -0.36655619
H   -1.21401834  -2.87207962   0.55460166
H   -2.47446085  -1.98542157   1.37812244
C   -3.10617622  -3.88801407   0.60604222
N   -3.74285427  -4.84025079   0.65681480
Cl   0.27723577  -0.41235180  -0.64266644
