13
Energy:    -73.43854350
C    0.16871269  -0.71774838   1.90873619
H    0.99899880  -0.06591311   1.73370498
H    0.07078261  -1.39857146   1.08910899
H    0.33139740  -1.26792382   2.81191931
C   -1.11947921   0.11581521   2.04039243
N   -2.07859664   0.73644119   2.13841649
C    0.03505356   0.54796333  -1.51267167
H   -0.75098647  -0.02085889  -1.06158131
H    0.40418256   1.26580429  -0.81028486
H    0.82896224  -0.10817040  -1.80266586
C   -0.50754218   1.27783115  -2.75544391
N   -0.91152937   1.82125091  -3.68074433
Cl   2.53004401  -2.18592003  -0.09888645
