13
Energy:    -76.74895595
C    1.69085136   1.50641926  -1.63211241
H    0.96906771   0.83817869  -2.05328111
H    1.29284339   2.49956239  -1.61964412
H    1.91894849   1.20101077  -0.63231421
C    2.97422717   1.47836233  -2.48285289
N    3.92975879   1.45747266  -3.11626784
C   -1.62404111  -1.43082144   1.63883666
H   -1.15191883  -0.55914583   2.04155538
H   -2.38606823  -1.13660255   0.94771510
H   -0.89559729  -2.02948098   1.13299533
C   -2.25521054  -2.24721720   2.78195656
N   -2.72514487  -2.85506095   3.63306129
Cl  -1.73771602   1.27732284  -0.63964774
