13
Energy:    -76.35842425
C    1.13648032  -2.08921791  -2.01949760
H    0.33752964  -2.49289823  -2.60568887
H    1.18124737  -1.02934296  -2.15935502
H    0.96502562  -2.30563795  -0.98573518
C    2.46870992  -2.72216567  -2.46237616
N    3.46061541  -3.19342406  -2.79211937
C   -1.41615886   2.18015685   1.88277195
H   -2.01648529   2.99887966   1.54483511
H   -1.81867265   1.26325065   1.50572452
H   -0.41409942   2.30235645   1.52802808
C   -1.41503513   2.14559139   3.42238358
N   -1.41419846   2.11985583   4.56869442
Cl  -1.05495847   0.82259594  -1.42766546
