13
Energy:    -75.38045296
C   -0.26514295   2.85312967  -1.39849345
H   -1.30323016   2.84528951  -1.65774943
H   -0.16032007   3.05085102  -0.35215817
H    0.16664143   1.90105800  -1.62657430
C    0.45661456   3.95011614  -2.20303480
N    0.99399583   4.76687242  -2.80205241
C    0.06819579  -3.01115547   1.37477977
H    0.63710852  -3.60183682   0.68751415
H    0.22794005  -1.97312380   1.17015544
H   -0.97136685  -3.24019424   1.26638301
C    0.51566829  -3.32536148   2.81444742
N    0.84883190  -3.55930213   3.88634542
Cl  -1.21493634  -0.65634281  -1.15956266
