13
Energy:    -74.61076465
C    1.34395689  -1.62410283  -0.34082862
H    1.74349957  -0.92057554   0.35939647
H    0.99803727  -1.10489853  -1.21011891
H    2.10638459  -2.32053223  -0.62116627
C    0.16945176  -2.38158589   0.30597667
N   -0.70502070  -2.94556647   0.78755261
C   -0.93313518   1.38662519   0.31496923
H   -0.29065594   1.93120132   0.97493700
H   -0.50658657   1.37169723  -0.66622011
H   -1.04315221   0.38373515   0.67134952
C   -2.31339629   2.06774094   0.26436689
N   -3.34106343   2.57486257   0.22669115
Cl   2.77168025   1.58139909  -1.06690563
