13
Energy:    -76.17977493
C    1.05753856   2.61635194  -0.34486694
H    2.04583765   2.54872332   0.05959747
H    1.09873547   2.50296455  -1.40804388
H    0.44747605   1.84294012   0.07293323
C    0.45386680   3.99001701   0.00186737
N    0.00440573   5.01277309   0.26002682
C   -0.78982072  -2.73677411   0.10636164
H    0.01396792  -2.94669308   0.78071913
H   -0.87759268  -1.67856904  -0.02553681
H   -0.59266722  -3.19881965  -0.83838357
C   -2.10410550  -3.29267278   0.68535403
N   -3.08265026  -3.70656460   1.11644019
Cl   2.32500821  -0.95367677  -0.46646868
