13
Energy:    -76.96910074
C    1.14660103   0.73526339  -1.85304767
H    0.87854278   1.04448981  -0.86440011
H    1.13862998  -0.33334595  -1.90698863
H    0.44303575   1.13303664  -2.55424053
C    2.55648743   1.25571192  -2.18913347
N    3.60621194   1.64320951  -2.43936462
C   -1.39629995  -0.88038340   1.75312722
H   -0.49926949  -1.18957082   1.25851659
H   -1.83572206  -0.06471033   1.21788452
H   -2.08557987  -1.69813865   1.78581695
C   -1.06286548  -0.43238705   3.18829993
N   -0.81460836  -0.09883340   4.25685126
Cl  -2.07516371  -1.11434168  -1.65332143
