13
Energy:    -76.38407155
C   -1.87465492   0.63342182  -1.67676665
H   -1.82142710   1.60075396  -1.22252495
H   -0.93680288   0.13197110  -1.55895394
H   -2.64679264   0.06075533  -1.20692037
C   -2.18976848   0.78711277  -3.17632743
N   -2.42438485   0.90154267  -4.29281859
C    1.76865537  -0.59374334   1.97922329
H    1.35533243  -0.35664996   1.02117785
H    1.85852886   0.30037121   2.56006839
H    1.12561130  -1.28396997   2.48417933
C    3.15968601  -1.22842786   1.79535024
N    4.19537156  -1.70097934   1.65844841
Cl  -1.56935468   0.74784162   1.63586441
