29
Energy:   -771.35463367
O    3.18058241   1.18848425  -1.45164659
H    2.86429729   0.42832638  -1.93986333
H    2.63711652   1.21093777  -0.66400929
O   -0.74433661  -0.78676561  -2.92690350
H   -0.68884234  -1.67991814  -2.58715242
H   -0.76238092  -0.23361013  -2.14592638
O    0.51416600   2.99194651   2.10337500
H   -0.11742096   2.47312817   2.60152889
H    0.98496542   2.35058355   1.57117832
O   -1.63398410   1.42589829   2.89098599
H   -1.88944566   1.80870739   2.05168364
H   -1.12148218   0.65239599   2.65589490
O   -0.95829689  -2.82989974  -0.96252541
H   -1.54927108  -2.09122311  -0.81644944
H   -0.09691627  -2.50310180  -0.70279788
O    2.02276929  -1.07771530  -2.62158619
H    1.87993323  -1.27183587  -1.69522400
H    1.16393679  -0.80555414  -2.94495423
O   -1.65834385   2.64411563   0.39743478
H   -0.85110805   2.94478310   0.81480905
H   -1.41970216   1.81508706  -0.01728637
O   -1.30221656  -2.97641332   1.83582229
H   -0.89666986  -2.12458408   1.99753395
H   -1.14632374  -3.14385697   0.90636444
S    0.42988639  -0.16388678   0.46273147
O    1.40844076   0.95036253   0.60757564
O   -0.67748938   0.26166678  -0.43878008
O    1.11396882  -1.35330554  -0.11814224
O   -0.12537465  -0.51427089   1.80027256
