29
Energy:   -772.20377141
O    1.68569366   2.67345687  -0.96309046
H    0.82259400   2.94290519  -1.27723759
H    1.51364348   1.90620173  -0.41724238
O    0.61932697  -3.12686736   1.28488862
H    0.98551182  -3.29425129   0.41648599
H   -0.03424007  -2.44230302   1.14187241
O   -2.51739634   1.65430264   1.96336394
H   -2.05476746   0.97640349   2.45596836
H   -2.21901261   1.54103848   1.06093930
O    1.26615635   1.14701337  -3.23748533
H    0.78381459   0.42790756  -2.82948397
H    1.64889433   1.62657779  -2.50280073
O   -1.11888769  -0.52949171   3.08093889
H   -0.16728735  -0.44020302   3.13305565
H   -1.28433447  -0.81439185   2.18222251
O    1.63939314  -0.80422411   2.53306338
H    1.45451923  -0.24649325   1.77742472
H    1.39423314  -1.68431411   2.24745874
O   -0.73668494   2.84812653  -2.33334635
H   -0.18867050   2.25329800  -2.84529463
H   -1.12227545   2.29460213  -1.65425686
O   -0.14981416  -3.29286625  -1.52284504
H   -0.03331946  -2.38828169  -1.81334050
H   -0.70434465  -3.22577246  -0.74552515
S   -0.41924136  -0.07068761  -0.35545448
O   -0.10423567  -0.58772950  -1.71690190
O   -1.40826159   1.03862919  -0.46201527
O   -0.99206812  -1.16895426   0.47266381
O    0.82759995   0.43530412   0.28443548
