29
Energy:   -781.30148875
O   -0.33413556   3.10854070  -1.06776518
H   -0.41559379   2.62986894  -1.89267109
H    0.06591728   2.48169955  -0.46505485
O    0.16144282  -1.89254194   2.98529935
H   -0.71763685  -1.51827473   2.92720606
H    0.49811457  -1.85449779   2.09006943
O   -2.73604479   1.69525104  -0.91824936
H   -2.02218945   2.31680139  -0.77570969
H   -2.40671215   0.86725811  -0.56867882
O    1.96885158  -2.08440915  -2.86811454
H    1.35420888  -1.40768167  -2.58441377
H    2.28415024  -2.47846425  -2.05476395
O    0.53231853   0.86343955   3.08858897
H    0.61048979   1.06757631   2.15668271
H    0.63410119  -0.08718219   3.13539130
O   -2.00117264  -0.21604796   2.64069046
H   -1.27484434   0.37153636   2.84907402
H   -1.94023855  -0.34672735   1.69441260
O   -1.10599567   1.41739502  -3.13021427
H   -0.50545021   0.77021830  -2.76043151
H   -1.84971535   1.42648030  -2.52769428
O    3.15579411  -2.41464511  -0.39832249
H    3.46199464  -1.61559736  -0.82726980
H    2.31507751  -2.17175420  -0.01046756
S    0.10451536  -0.26817435  -0.20278015
O   -1.35834482  -0.43621852   0.02503829
O    0.38185250  -0.26334105  -1.66673395
O    0.55493034   1.02143610   0.39230913
O    0.83962344  -1.39457395   0.43826595
