29
Energy:   -770.84476691
O   -0.81386025  -2.77425602  -0.60205608
H   -0.78733814  -1.88941300  -0.96617317
H   -0.34043690  -2.70684221   0.22713483
O    0.39669393  -2.24496098   1.86385945
H    0.69156001  -1.41334560   1.49277766
H   -0.40652227  -2.02567986   2.33607907
O    0.39745334   2.94805301  -2.61240970
H    0.01756456   2.78667218  -1.74877055
H    0.69113039   2.08702954  -2.91010791
O    1.87348037   2.96531483   0.98825686
H    1.02817189   2.94002085   0.53987573
H    1.99345649   2.07718155   1.32449615
O    2.90112409   0.93994461  -0.76684300
H    2.25276964   0.47051860  -0.24195485
H    2.70545914   1.86515305  -0.61873352
O   -1.98298161  -1.43509141   3.00522980
H   -2.53164991  -1.93919875   2.40433818
H   -1.77204690  -0.63511723   2.52379475
O   -3.15040591  -1.87210501   0.53198124
H   -2.46077631  -2.31662532   0.03898575
H   -2.80808216  -0.99093677   0.68227707
O    1.28162116   0.35221625  -2.95362187
H    1.94673958   0.52970074  -2.28852895
H    0.50132716   0.11115727  -2.45435872
S   -0.47773862   0.62777966   0.11334370
O    0.79560302   0.18939257   0.75093120
O   -0.68277255  -0.12547937  -1.15577486
O   -1.61441004   0.36031230   1.03883780
O   -0.40937494   2.08689314  -0.18061933
