29
Energy:   -782.78743621
O    0.36329510  -1.06220761  -3.77082464
H   -0.32512175  -0.92639195  -3.11977303
H    1.13538246  -1.30032968  -3.25758900
O    1.42024663   1.35505058  -2.88371762
H    0.97124902   1.45948013  -2.04483297
H    0.92892966   0.66867243  -3.33507615
O   -1.58790127   1.40765730   2.92453876
H   -1.72402373   1.07572247   2.03711451
H   -1.23222462   0.66187482   3.40779280
O   -0.58493637  -1.15352182   3.13925040
H    0.34021440  -1.02116888   2.93234317
H   -1.04294139  -0.96992970   2.31903264
O   -3.78403734  -0.93222717  -0.77358412
H   -3.07197019  -0.90349760  -1.41261998
H   -3.37128224  -0.69394134   0.05652728
O    0.83561130   2.16014771   1.85040051
H    0.66334731   1.93939455   0.93507270
H    0.00493313   1.99682245   2.29708886
O    1.86946206  -0.41353958   2.15895571
H    1.52779311  -0.80470053   1.35491138
H    1.63283227   0.51174746   2.09506451
O    2.49230679  -1.06505420  -2.00604960
H    2.34912447  -0.14195457  -2.21489824
H    1.89636416  -1.24164907  -1.27810833
S   -0.51118019  -0.17332063  -0.39704582
O    0.07671294   1.18769638  -0.54575480
O    0.57176744  -1.15222906  -0.09861203
O   -1.49806842  -0.16879779   0.71925664
O   -1.19513273  -0.55995207  -1.66307310
