29
Energy:   -773.03519727
O   -0.59741763   0.62329824  -3.24345798
H   -1.33297022   0.15717686  -2.84606007
H    0.09567251   0.58428089  -2.58441660
O    3.61969381  -0.54381767  -1.45694971
H    3.25346447  -0.99600943  -0.69692962
H    2.92956141   0.05934836  -1.73288423
O   -0.65670606  -0.51092086   3.35546827
H   -1.05257853  -1.22647328   2.85797298
H   -0.29350240   0.07244668   2.68913708
O    0.45459149   3.12797014  -0.10595242
H    0.86815424   2.58292116  -0.77536956
H    0.32008174   2.53722423   0.63509970
O    1.42180432  -2.28232116   2.85733537
H    1.67690340  -1.95413421   1.99510011
H    0.85730750  -1.59814096   3.21715845
O   -1.08826849  -2.74846504   1.75756663
H   -1.04733794  -2.18994444   0.98128622
H   -0.18032365  -2.81543762   2.05317228
O   -2.71260295  -0.02880740  -1.57938966
H   -2.03425010  -0.46227657  -1.06153472
H   -2.56479705   0.90572373  -1.43434881
O   -1.71156379   2.61199061  -1.74712240
H   -1.26080684   2.01721312  -2.34653023
H   -1.06605288   2.80109747  -1.06610397
S    0.63071618  -0.19398925   0.08268078
O   -0.61331668  -0.95858485  -0.21375776
O    1.03755871   0.57974564  -1.12393161
O    0.37977758   0.74399601   1.21286373
O    1.71884511  -1.14111379   0.45554880
