29
Energy:   -773.05416676
O   -0.95612792  -0.24715770  -3.64636448
H   -1.56256743  -0.64774442  -3.02347344
H   -0.21526511   0.03709214  -3.11105506
O    2.30050357  -1.90488667   2.17027786
H    2.41677582  -1.32714197   1.41600757
H    1.43762367  -2.29834823   2.04043905
O   -0.39260839  -2.37917375   1.94070649
H   -0.30449622  -2.15053987   1.01539863
H   -0.39136282  -1.53772852   2.39699613
O    2.96616732   1.45693462   2.17951811
H    2.83543806   0.97400546   1.36347819
H    2.15806274   1.31722345   2.67315727
O   -2.36324954   1.61575618  -0.61669294
H   -1.94986136   1.97002116  -1.40399109
H   -1.63141051   1.38442826  -0.04473938
O   -2.43004351  -1.04356658  -1.46919459
H   -1.57418042  -1.31954194  -1.14121926
H   -2.53198434  -0.14717624  -1.14931295
O    0.60529250   0.10190504   3.09597074
H    1.31241650  -0.49398291   2.84873591
H    0.29584977   0.46457885   2.26594378
O   -0.97151930   2.41042482  -2.86577412
H   -0.24357378   2.04825731  -2.36063863
H   -1.27141223   1.68252094  -3.41024820
S    0.70828208   0.00637352  -0.35971540
O    0.72845290   0.68877710  -1.68410903
O   -0.08568719   0.81799628   0.60515832
O    0.08771984  -1.34050207  -0.50438283
O    2.10264279  -0.14077723   0.14447196
