29
Energy:   -772.58619809
O    1.78022101   2.30778761  -1.97891669
H    1.73567761   1.41418644  -1.63873339
H    0.90428336   2.66456473  -1.83169179
O    1.04099855  -3.34208459   1.30910956
H    1.18095995  -2.63112558   1.93455335
H    0.46645362  -2.96562828   0.64246826
O   -1.00556081   2.66251690   1.42667383
H   -0.50362261   1.84776002   1.40520011
H   -1.88719948   2.40850969   1.15386357
O    3.06804707  -1.75980466   0.23434555
H    2.45263629  -2.46755084   0.42564835
H    2.55313406  -1.12060932  -0.25812350
O   -3.02893590   0.90648323   0.71636091
H   -2.65193085   0.78779421  -0.15542573
H   -2.38658846   0.51836229   1.31048527
O    1.75089619  -0.96658035   2.54756739
H    0.99208036  -0.53723238   2.15248423
H    2.37390197  -1.06329197   1.82732957
O   -0.83464096   2.97395710  -1.32652394
H   -0.74713400   3.05610009  -0.37687827
H   -0.97507986   2.03876392  -1.47458634
O   -2.23733561  -1.99034672  -2.46451736
H   -1.64367505  -2.34007512  -1.80007095
H   -2.13989040  -1.04049126  -2.39735424
S   -0.12388354  -0.40482249  -0.36924221
O    1.24650151  -0.11066934  -0.87482972
O   -0.36925746  -1.87341947  -0.42505025
O   -0.24528551   0.06584258   1.03924492
O   -1.12749270   0.29895628  -1.21633377
