29
Energy:   -774.22670770
O   -0.32261563   2.84838479   1.19427915
H   -0.52163292   1.96746071   1.51144903
H   -0.13074202   2.73082955   0.26390443
O    0.19780072  -2.36853657  -2.27754993
H   -0.14845541  -1.58300449  -1.85413771
H    0.15036982  -3.04565708  -1.60264996
O    2.30112642   1.89696953   1.07627287
H    1.48691358   2.32354023   1.34334352
H    2.09088622   0.96319334   1.06663321
O   -2.98938593   1.87792564   1.63084473
H   -2.41721152   2.61173597   1.40641058
H   -2.39304046   1.14189129   1.76816681
O    0.71230027  -4.07238039  -0.12515820
H    1.51999639  -3.57491061  -0.25315292
H    0.13990259  -3.47951529   0.36177476
O    2.58775464  -2.17009397  -0.87465271
H    2.28193303  -1.59202121  -0.17569857
H    1.90112874  -2.12610683  -1.54011635
O   -2.95500677   1.01014086  -1.01344131
H   -2.14294600   0.50341594  -1.01780259
H   -3.06997805   1.27136219  -0.09978006
O    0.73414545   2.06360803  -1.23152882
H    1.45618450   1.91945282  -0.61988290
H    0.23576791   1.24663605  -1.21131857
S   -0.19187778  -0.66718596   0.71266021
O   -0.63158360  -2.06551636   0.97992575
O   -0.56376658  -0.28704916  -0.67920714
O   -0.85826234   0.25539744   1.67436262
O    1.28610141  -0.57157573   0.87555963
