29
Energy:   -773.08528925
O   -2.50649769  -1.46105063  -1.99079331
H   -2.93366586  -1.14208674  -1.19579568
H   -1.59441172  -1.18508468  -1.90038403
O    2.38117911   2.41820917   1.11180245
H    2.09524834   2.84378969   0.30349764
H    2.11317531   1.50495424   1.00996312
O   -2.04475155  -3.41910756  -0.07767023
H   -1.25276151  -3.04854221   0.31177160
H   -2.15861267  -2.93569988  -0.89595166
O   -3.33661818  -1.06169158   0.63314718
H   -2.58194822  -0.48910071   0.77042349
H   -2.96760588  -1.94470023   0.61423956
O    1.00948613   3.26067901  -1.12134925
H    1.23384807   2.42457069  -1.52978093
H    0.33637495   3.04027277  -0.47747483
O    2.01071947   0.88587151  -2.10507261
H    1.22629859   0.33857842  -2.14230176
H    2.36232930   0.74188572  -1.22651102
O    2.52327738  -2.21646459   1.97422028
H    1.64619021  -2.48932434   1.70496669
H    2.61210740  -1.32568901   1.63531035
O   -0.37380099   2.78337262   1.25579163
H    0.54940603   2.65697103   1.47475120
H   -0.71298870   1.89780663   1.12557478
S    0.12364114  -0.61547338   0.20582236
O   -0.02967586  -0.68796455  -1.27449481
O    1.44228773  -0.00718701   0.53937723
O   -0.96833784   0.22146562   0.77784949
O    0.05029052  -1.98820758   0.78055753
