29
Energy:   -781.19323546
O    0.59717586   2.93747747  -0.01968643
H    0.81862033   2.01753568   0.12488635
H    0.06543329   2.93410509  -0.81559492
O    0.44954060  -3.13014855   1.67430129
H    0.87630834  -2.37308005   2.07548507
H    0.22766778  -2.83970126   0.78962922
O   -2.01447487   2.50632538   0.83122892
H   -1.09048948   2.75267690   0.78887589
H   -2.01411372   1.55472514   0.72784270
O    2.10522416   0.25081665  -2.54720926
H    2.27058428   0.28488599  -1.60501652
H    1.15189434   0.28740191  -2.62502716
O    0.98359948  -0.61817441   2.73090910
H    1.07977809  -0.25076744   1.85227741
H    0.04088407  -0.74716075   2.83522610
O   -1.63732298  -1.56624918   2.58977516
H   -1.77134303  -1.00529436   1.82583788
H   -1.08582397  -2.28007451   2.26956573
O   -1.48159814   2.71108817  -1.87386981
H   -1.89838884   2.67527800  -1.01291976
H   -1.18330477   1.81567581  -2.03352452
O    1.72205465  -2.50634222  -2.46324800
H    1.95928362  -1.59391656  -2.62887915
H    1.01675000  -2.45758952  -1.81795708
S   -0.35721797  -0.37874729  -0.49102061
O   -0.16406677  -1.85189799  -0.60335773
O    0.83939434   0.23130604   0.15400181
O   -0.53964309   0.20334500  -1.85042845
O   -1.56455637  -0.09774219   0.33570191
