29
Energy:   -772.59265233
O   -0.51144781   2.21320370   1.18761352
H    0.08968963   1.61462469   0.74425272
H   -1.37048810   2.00729579   0.81898965
O    0.81271270  -2.79533958   2.64054351
H    1.33359014  -1.99777996   2.73444339
H    0.17895990  -2.58859323   1.95363362
O   -2.98802519   1.05607132   0.68347504
H   -2.54030201   0.63784294  -0.05195737
H   -2.70067580   0.56235880   1.45153111
O    1.74147623  -1.01032735  -3.47137891
H    2.00568684  -0.18051738  -3.07408806
H    1.28570314  -1.47732314  -2.77108064
O    1.59759781  -0.12794271   2.65823430
H    1.53025654  -0.05336524   1.70632296
H    0.69135535  -0.10456873   2.96549658
O   -1.22194967   0.13089217   2.80532414
H   -0.90621995   0.90808855   2.34433349
H   -1.10415350  -0.58373800   2.17949698
O    1.71891533   1.44941057  -2.18717041
H    0.88127879   1.38953068  -2.64653003
H    1.55801051   1.03467843  -1.33962175
O   -0.54249009   0.58795290  -3.55857259
H    0.10415565  -0.10884554  -3.67061305
H   -0.97291396   0.38465271  -2.72812923
S   -0.22606867  -0.85040729  -0.40349012
O   -1.33513311  -0.11103365  -1.06937500
O    0.82610268   0.11339897   0.02559372
O   -0.75503867  -1.57137077   0.78835819
O    0.35979444  -1.83262373  -1.35853741
