29
Energy:   -771.76095187
O   -1.31603129   3.07230908   0.76835325
H   -0.59566006   3.09474719   1.39826885
H   -1.49742811   2.14067633   0.64430705
O    2.78509299  -1.94236026   1.64337650
H    2.07871150  -1.31781615   1.80830583
H    2.41742518  -2.55877380   1.01006253
O   -2.77410234   0.83668707  -1.64226596
H   -2.05662853   1.35346735  -2.00887380
H   -2.48217562   0.61397370  -0.75829233
O    3.11278016  -0.73595255  -0.84359673
H    3.16157580  -0.98554645   0.07919995
H    2.27503403  -0.28010496  -0.92493709
O   -0.34274796   1.73047263   3.16426810
H    0.20159667   1.03440811   2.79628038
H   -1.18236689   1.64237908   2.71314569
O   -2.48008308  -1.96732233  -1.73613254
H   -2.63424739  -1.02653915  -1.82211067
H   -1.77420198  -2.03708730  -1.09340666
O   -0.47564209   2.46224110  -1.86071256
H   -0.79660666   2.84682019  -1.04504565
H    0.00460185   1.68141015  -1.58521189
O    1.74539938  -3.15146452  -0.61555108
H    0.88150893  -2.80891574  -0.38623583
H    2.22292279  -2.39292533  -0.95144026
S   -0.13937501  -0.33188807   0.41986151
O   -1.41116965   0.41429786   0.63397581
O   -0.44643023  -1.75108300   0.08564176
O    0.61838487   0.28988392  -0.70232367
O    0.68171499  -0.28065106   1.66215214
