29
Energy:   -773.09554548
O   -2.12105256  -1.46307964  -1.37550897
H   -1.58295931  -0.67736895  -1.27883319
H   -1.83280854  -2.03989211  -0.66809494
O    0.08135596  -2.60207391  -2.59755298
H   -0.78945186  -2.25733913  -2.39985745
H    0.64905268  -2.21738156  -1.92974756
O    0.59090629   3.29003649  -0.78056912
H    1.32079650   2.67087396  -0.79196564
H   -0.18498292   2.74910860  -0.92762286
O    3.91008578  -0.88449678  -1.34830932
H    3.50324195  -0.03060349  -1.20142093
H    3.22393844  -1.51705351  -1.13545806
O   -0.86409095  -2.71589774   0.74640030
H   -0.07130411  -2.39112367   0.31950140
H   -1.08743839  -2.03868351   1.38493664
O   -2.13166539   1.68268106   0.99622184
H   -1.66161419   1.21343443   0.30695315
H   -1.44694108   2.13685483   1.48725202
O   -1.40040323  -0.59131134   2.48082185
H   -0.49542969  -0.37616283   2.25506566
H   -1.92452831   0.06726310   2.02496610
O    0.22714841   2.80294296   1.93885408
H    0.52701396   1.89403791   1.92456754
H    0.40223411   3.12733138   1.05548043
S    0.92303288   0.09715965  -0.11709644
O    0.87773497   0.23440653   1.36587739
O    2.00346526   0.96561888  -0.66348864
O    1.19761324  -1.32257749  -0.47633469
O   -0.38668195   0.51119065  -0.69443984
