29
Energy:   -783.11278887
O   -3.28713057  -0.23039462  -0.77516581
H   -2.76562495   0.27215151  -1.40103411
H   -2.67588070  -0.44375420  -0.07012458
O   -1.01846300  -1.32486565   3.61041919
H   -1.43887462  -1.47537717   2.76375976
H   -0.26517643  -0.76968936   3.40899806
O   -2.16167171  -2.74338889  -0.94117496
H   -2.81074514  -2.07626305  -1.16451022
H   -1.65011198  -2.35281745  -0.23266070
O   -1.36281678   0.91045929  -2.36926408
H   -0.92899340   0.07312726  -2.53328907
H   -1.01630332   1.19892920  -1.52490315
O   -0.17107268  -1.61310419  -2.47470404
H    0.40904071  -1.32164254  -1.77131908
H   -0.86960112  -2.09070340  -2.02727935
O    3.15930110   0.92224986  -0.70661036
H    2.65972319   1.72841584  -0.57718787
H    2.51069737   0.22272005  -0.62785063
O    1.68550372   3.02317587   0.38675121
H    0.87949166   2.52722127   0.24320525
H    2.10800255   2.58577386   1.12594405
O    3.10295112   1.28736741   2.03663108
H    2.26300823   0.85658855   2.19524184
H    3.33835541   1.03309433   1.14435205
S    0.07570097  -0.07347565   0.66668525
O    0.69890943   0.12620905   2.00528050
O   -1.12436606  -0.94607637   0.80272608
O   -0.33056420   1.24594201   0.10616259
O    1.05882471  -0.71997730  -0.24742818
