29
Energy:   -772.63114551
O    0.16491378   2.98787307  -0.79627469
H    0.45572466   2.15451530  -0.42590229
H   -0.78821136   2.96924676  -0.71003438
O    1.71133884  -2.99679838   0.26706292
H    2.27778416  -2.25363066   0.47460399
H    0.82342747  -2.66903648   0.40995234
O   -2.56147417   2.51365398  -1.09779147
H   -2.45536220   1.78454882  -0.48674503
H   -2.16020311   2.20597875  -1.91053333
O    2.87539974  -0.60115908   1.07620370
H    2.52363799  -0.58669976   1.96630844
H    2.19193292  -0.19722954   0.54146462
O    0.84479031   0.38328269   2.91696778
H    0.84192017   0.57266932   1.97869473
H    0.00999989  -0.05746719   3.07538604
O   -1.66786219  -0.84278880   2.94326623
H   -2.03823807  -0.15135435   2.39465712
H   -1.25845393  -1.44705525   2.32400959
O   -0.79116095   1.69408278  -3.06329475
H   -0.25346083   2.19210481  -2.44759638
H   -0.82430411   0.81172424  -2.69373180
O    0.84429110  -2.59791448  -2.39205252
H    0.21787395  -1.89017060  -2.24061936
H    1.18516706  -2.80686892  -1.52235517
S   -0.66440077  -0.33084745  -0.11324541
O   -0.79262299  -0.54658768  -1.58195751
O    0.56120633   0.46911855   0.16611392
O   -1.86095618   0.40246250   0.38736589
O   -0.56523024  -1.64838319   0.57549606
