29
Energy:   -771.05535073
O   -0.09299611   2.64742715  -2.44640545
H    0.85837399   2.55612682  -2.39357522
H   -0.43213541   1.96415553  -1.86816997
O   -2.07570450   0.77763109   1.54465455
H   -2.08777799  -0.16981974   1.68038592
H   -1.62968513   0.89422785   0.70578402
O    1.09052321  -0.73012341   3.24718138
H    0.88927070   0.20513383   3.21519410
H    1.02978098  -1.01994373   2.33693614
O   -2.03214330  -1.56325104  -1.58242500
H   -1.66627991  -0.70996617  -1.34944272
H   -1.26764298  -2.12119472  -1.72549826
O    2.62384088   2.08856008  -2.05556817
H    2.39779358   1.18421952  -2.27305979
H    2.46028069   2.15724162  -1.11494988
O    0.41465624  -2.91734575  -1.64318302
H    0.39063853  -2.82203077  -0.69104330
H    0.87466017  -2.13640698  -1.95101881
O   -1.84480970  -1.99952651   1.15736720
H   -2.14253808  -1.88796113   0.25451460
H   -0.92018168  -1.75275623   1.13738474
O    0.29840327   1.84986726   2.62241880
H   -0.56408017   1.53265237   2.35459632
H    0.85545447   1.70521219   1.85756540
S    0.77967091   0.04155439  -0.33401370
O    1.55891275   1.11860587   0.33892186
O    0.63807541  -1.11967025   0.58881241
O   -0.57103642   0.55698452  -0.69459869
O    1.49273188  -0.38970257  -1.56919041
