29
Energy:   -772.77437350
O    2.21395728  -0.06865571  -1.61335716
H    1.66979601   0.30130151  -0.91819387
H    1.64589826  -0.70265123  -2.05106764
O    3.05133016   1.82305987   0.42595806
H    3.25976874   1.34891997  -0.37901185
H    2.16449277   1.53983172   0.64851842
O   -3.32947080   1.64015737   0.76305387
H   -3.23362339   1.41874301  -0.16324025
H   -2.74243259   1.03511201   1.21641698
O   -0.98487237   2.90258207  -0.04652441
H   -1.75507277   2.60082638   0.43510480
H   -0.31871888   2.23689135   0.12472759
O   -2.34875849   1.23364901  -1.79847447
H   -1.78854899   1.91068315  -1.41897224
H   -1.96039378   0.40909041  -1.50605729
O   -0.99076387  -1.91661964   3.62185579
H   -1.43897913  -1.16026726   3.24335082
H   -0.32942922  -2.15376076   2.97175393
O    0.60346631  -2.23780785  -2.22961707
H   -0.10155432  -1.78028029  -1.77152723
H    1.17213074  -2.56258957  -1.53149857
O    2.46588874  -2.47070213  -0.18804219
H    1.74932075  -2.29703365   0.42236869
H    2.65250104  -1.62089480  -0.58708504
S   -0.38300030  -0.43408894   0.65677291
O    0.56804990   0.69000383   0.42869625
O    0.35664986  -1.60804101   1.19977769
O   -1.42749952  -0.01094935   1.63149044
O   -1.02920142  -0.80736925  -0.63287275
