29
Energy:   -776.89354986
O    1.55019274   1.17524320   1.49704541
H    1.45130742   0.59126841   0.74509662
H    0.71253476   1.63469942   1.55587519
O    2.38661614  -2.19459161   1.00135318
H    1.91364040  -1.98689750   1.80719991
H    1.91120936  -1.72475841   0.31616926
O   -1.01309898   2.22435286   1.70957112
H   -1.15528120   1.85299831   0.83887493
H   -1.34520544   1.55843898   2.31164742
O    1.42225862   0.50276267  -2.88883729
H    0.63895051   1.04975997  -2.94760969
H    1.35140618   0.07292104  -2.03651813
O    0.75748449  -1.02227468   2.92900888
H    1.18316174  -0.24684939   2.56329539
H    0.06614725  -1.23472302   2.30199184
O   -1.80208641   0.09153335   3.28630976
H   -1.83344422  -0.33376750   2.42935719
H   -0.93428491  -0.12251998   3.62884967
O   -1.17158617   1.46801486  -3.15986232
H   -1.28999924   1.36498353  -2.21561937
H   -1.19467366   0.57491914  -3.50348835
O   -0.55863738  -1.13326014  -3.94499006
H    0.28437987  -0.73692340  -3.72482885
H   -0.92772549  -1.39615687  -3.10184646
S   -0.73573615  -0.59474969  -0.36832583
O    0.74996484  -0.59576348  -0.48142555
O   -1.24666255   0.79317547  -0.54920688
O   -1.31446722  -1.47798745  -1.41954484
O   -1.13177966  -1.09842330   0.97687395
