29
Energy:   -774.66283339
O    0.90413785   2.77317011   0.82109107
H    0.97757991   2.05436934   0.19326661
H   -0.02687628   2.99551824   0.82350602
O    0.55093606  -2.66414924   1.20140609
H    1.31181705  -2.09093210   1.29475531
H   -0.18388698  -2.06679792   1.06198461
O   -2.93351646   0.58338489  -3.13461953
H   -2.37093915  -0.17828380  -2.99462159
H   -2.72504115   1.17226664  -2.40936911
O    2.34411620  -1.22914086  -2.02771898
H    1.85534757  -0.50023318  -1.64557940
H    1.74578525  -1.97427202  -1.97284199
O    2.16366014  -0.42558808   1.51407379
H    1.85261705  -0.15440671   0.65039288
H    1.49876132  -0.10107860   2.12139167
O   -0.03340744   0.94780140   2.65325622
H    0.41836734   1.57022735   2.08341648
H   -0.46289648   0.33967506   2.05163062
O   -1.81917958   2.83038194   1.37244414
H   -1.50399472   2.17482135   1.99464238
H   -1.88192233   2.36107191   0.54055275
O    0.38988825  -3.14710030  -1.53851784
H    0.49656406  -3.10975310  -0.58801413
H   -0.17534545  -2.40299325  -1.74599657
S   -0.73276812   0.09541140  -0.62963759
O   -1.04595003  -0.54824199   0.67716285
O   -1.00525422  -0.86607407  -1.73480591
O   -1.58367758   1.30611925  -0.80353298
O    0.70380936   0.48984243  -0.65737434
