29
Energy:   -781.41164774
O   -0.59907504  -2.96388196  -1.13415574
H    0.35380480  -2.89789355  -1.07172671
H   -0.92422367  -2.19885966  -0.65954947
O   -1.60409663  -0.94929775   2.74163933
H   -1.56173104  -0.91579932   1.78596424
H   -1.23057618  -0.11573051   3.02778612
O    0.13346772  -1.33441752  -3.24452741
H    0.13724079  -0.50341367  -2.76950088
H   -0.32092981  -1.94224679  -2.66117648
O   -0.96818844   2.90462015  -2.61749158
H   -1.68602912   2.98011606  -1.98881284
H   -0.49762123   2.11490772  -2.35074709
O    2.07013271  -2.21007081  -1.46479873
H    1.59717401  -1.84196468  -2.21114971
H    1.95874909  -1.56370335  -0.76763688
O    1.16448303  -1.31772603   2.81797964
H    0.21737494  -1.45399871   2.79252624
H    1.38615895  -1.00862233   1.93960242
O   -0.19708875   4.05540950  -0.23347211
H   -0.19689606   3.78919838  -1.15290860
H   -0.16711085   3.23255263   0.25462597
O    0.07508452   1.15916044   3.39424367
H    0.65362797   0.40001561   3.32200481
H   -0.03522984   1.46340944   2.49341342
S    0.04527771   0.33311649  -0.08658379
O    1.32227081  -0.32446383   0.30961911
O    0.11401617   0.72720378  -1.52187826
O   -1.08540914  -0.61627122   0.11419035
O   -0.16976703   1.54599721   0.75173364
