29
Energy:   -778.78607698
O   -0.09220435   2.70796977   2.04752728
H    0.60912215   2.31237869   1.52995536
H   -0.86673633   2.18443583   1.84199317
O    0.19512428  -2.79950439   1.49832013
H    0.80700466  -2.17017780   1.88013461
H   -0.12668463  -2.37057877   0.70541806
O   -3.38678004   1.99296223  -0.80295462
H   -2.63622282   1.84320371  -1.37781816
H   -3.13403770   1.59528077   0.03023360
O    2.67706840  -0.09284386  -1.59493491
H    2.15228034   0.26639767  -0.87955050
H    2.16616564  -0.83495769  -1.91816437
O    1.33192035  -0.53804239   2.61551997
H    1.32075755  -0.06961083   1.78084691
H    0.42459845  -0.50912014   2.91910244
O   -1.40932114  -1.05931507   2.92710652
H   -1.58576900  -0.40605060   2.25009579
H   -1.03874626  -1.80313900   2.45209908
O    0.92625378   0.99371802  -3.44740360
H    1.67743146   0.82311696  -2.87919658
H    0.19257299   1.11623578  -2.84496377
O    0.74965258  -1.70632054  -2.79529718
H    0.23085439  -1.67460525  -1.99150963
H    0.63943839  -0.83965674  -3.18642189
S   -0.53361282   0.29599168  -0.22666491
O   -0.56078327  -1.17015253  -0.49082947
O    0.82796383   0.69325715   0.22983171
O   -0.87280362   1.03227721  -1.47683820
O   -1.52882824   0.62858490   0.83117630
