29
Energy:   -772.55589873
O   -0.11290544   3.13219584   2.44287135
H    0.42556036   2.37727069   2.68030440
H   -0.68840540   2.80809938   1.75005598
O    1.88158343   3.07255572   0.50858204
H    1.49462882   2.49648841  -0.15069365
H    1.14987941   3.31178234   1.07745083
O    0.33607314  -2.45682479  -0.73077609
H    0.00779492  -2.09991467  -1.55605207
H    0.17693758  -1.76417422  -0.08957182
O   -0.29672581  -1.24304084  -3.13363238
H    0.57630106  -0.88721122  -2.96797845
H   -0.87946113  -0.71123265  -2.59157017
O    1.67222059   0.99344939   2.34712446
H    1.95812321   1.61069991   1.67370532
H    1.02109211   0.44520998   1.90929217
O   -2.51235079  -2.38612716  -0.68900314
H   -2.39259455  -1.46014545  -0.89983050
H   -1.62306220  -2.72958286  -0.60277185
O    2.14856904  -0.62652447  -2.01303129
H    1.70313972   0.15807160  -1.69329142
H    1.84808445  -1.32623886  -1.43308248
O   -1.96962779  -1.93231466   1.97726879
H   -1.30997390  -1.27307358   1.76165389
H   -2.39332671  -2.12998557   1.14202195
S   -0.64246991   0.76942087  -0.24961189
O   -1.58211499   0.11413856  -1.20238269
O   -1.32512660   1.91744083   0.41078951
O   -0.21553818  -0.21566082   0.78355963
O    0.55290016   1.26176492  -0.99041399
