29
Energy:   -783.85127320
O   -1.68203257   2.64153930   1.13452935
H   -0.82574857   2.86338988   0.76875361
H   -1.69742621   1.68453269   1.14607184
O    1.01255191  -2.96971753   1.69607194
H    1.53583366  -2.18996672   1.88153549
H    0.51330750  -2.74268808   0.91156923
O   -2.04676203   2.56077471  -1.60857788
H   -1.78797874   1.65076798  -1.75401104
H   -2.16680555   2.62767986  -0.66129487
O    2.30370213  -0.62118200  -2.35661255
H    1.95442327  -0.23620577  -1.55285299
H    1.57693973  -1.13155326  -2.71378118
O    1.80278327  -0.37658810   2.31573784
H    1.61717600  -0.08178270   1.42418214
H    0.94056795  -0.48469261   2.71714786
O   -0.70911828  -1.30829760   3.09204536
H   -1.08217155  -0.80463924   2.36858743
H   -0.27466620  -2.04929932   2.66967149
O    0.50707748   2.93306790  -0.54690244
H    0.79019542   2.03178865  -0.39272139
H   -0.24895286   2.85101080  -1.12820838
O   -0.01599917  -2.00256566  -3.10712236
H   -0.00005096  -2.38157656  -2.22830029
H   -0.48380696  -1.17402298  -3.00269662
S   -0.49026411  -0.39655607  -0.31830830
O   -0.32683632  -1.87733415  -0.34453069
O    0.84415686   0.24771623  -0.16231513
O   -1.11475001   0.05685242  -1.59288201
O   -1.36362700  -0.01345876   0.82649463
