29
Energy:   -777.22921177
O   -1.61132321  -2.88648385  -0.18274323
H   -0.67119825  -2.91739990  -0.00542683
H   -1.87892326  -2.00991328   0.09338371
O    0.74149268   2.97397347   2.93828161
H    1.36182519   2.24576608   2.97194798
H   -0.04622877   2.60013833   2.54334610
O    0.97433082  -0.96867094  -2.11280063
H    0.13956419  -1.33381142  -2.40617575
H    0.73025850  -0.23678165  -1.54623324
O   -2.31505460   0.65765087  -2.14483520
H   -1.44859364   1.04654897  -2.02552249
H   -2.53485737   0.29359386  -1.28729157
O    1.09286811  -2.53352321   0.16766748
H    0.82851951  -1.86650567   0.80125983
H    1.18718961  -2.05705562  -0.65714398
O    2.42741601   0.88036360   2.27453856
H    2.42399282   1.44898544   1.50454548
H    1.67898532   0.29766823   2.14589386
O    1.78239368   2.79891989   0.35531593
H    1.32506659   3.05823887   1.15521433
H    1.18598905   2.18555170  -0.07400076
O   -1.53304397  -1.89192559  -2.71548596
H   -1.60100636  -2.30061800  -1.85259345
H   -1.84038985  -0.99539854  -2.58128607
S   -0.73334905   0.46027444   0.77056422
O   -1.95816378  -0.29100035   0.37621021
O   -1.11815467   1.63889967   1.59692201
O    0.16214747  -0.42987987   1.56164659
O   -0.01922522   0.92307830  -0.45252194
