29
Energy:   -774.12148319
O    0.43013888   2.97388418   1.03047149
H    0.69454852   2.15573910   0.60980771
H   -0.48965982   2.83987538   1.25904059
O    0.38437753  -3.08785269   0.29867776
H    0.86819138  -2.48201154   0.86002659
H   -0.02951756  -2.52791896  -0.35813037
O   -2.33414346   2.65925353   0.99805376
H   -2.11024994   3.05380695   0.15518298
H   -2.21813471   1.71900629   0.86127312
O    2.89219851  -0.56761559  -1.38995892
H    2.20024205  -0.06919532  -0.95521147
H    2.43418613  -1.29089258  -1.81812583
O    1.13548624  -1.05122383   1.99412929
H    1.13507338  -0.41462790   1.27930253
H    0.20994097  -1.17930476   2.20195877
O   -1.50256159  -1.95821277   2.02890037
H   -1.70556041  -1.18506169   1.50234485
H   -1.03567251  -2.54074798   1.42981843
O   -1.02241929   3.74472966  -1.20685801
H   -0.34584044   3.67024297  -0.53386125
H   -1.09006250   2.86482862  -1.57757408
O    1.41654622  -2.72119645  -2.35879846
H    1.47979236  -3.17419018  -1.51794863
H    0.67772487  -2.12179057  -2.25350147
S   -0.64046379   0.15678744  -0.74461573
O   -0.54792974  -1.19363420  -1.36743099
O    0.69057362   0.54402200  -0.19827444
O   -1.06360411   1.14959496  -1.77193532
O   -1.64089493   0.12716702   0.35917780
