29
Energy:   -777.99888337
O   -0.96530233   2.17431136  -2.90768251
H   -0.44890654   2.23411517  -2.10394702
H   -1.28399638   1.27182992  -2.92158219
O   -3.07360460   0.68483512  -0.10373326
H   -2.88997748   1.60428479  -0.29641233
H   -2.31519943   0.38905489   0.39982160
O   -2.26255032   3.25487174  -0.71340549
H   -2.17743348   3.08354518  -1.65129364
H   -1.44525546   2.93063813  -0.33507558
O    3.42729825  -1.46218510   0.47925484
H    2.99048272  -0.61324651   0.54801026
H    2.74216054  -2.06130085   0.18281177
O    0.19018461  -2.01714463   2.41283642
H    1.01079243  -1.62502987   2.71130026
H   -0.27211785  -1.30234106   1.97515600
O    2.56858765  -0.74466486   3.01166344
H    3.08899510  -1.27635866   2.40940964
H    2.17755187  -0.06856077   2.45830449
O   -1.82995079  -0.37864644  -2.36987709
H   -2.35517425  -0.09099219  -1.62313269
H   -0.94544008  -0.47705072  -2.01747214
O    1.10333027  -2.80701985  -0.10814322
H    0.90208842  -2.00656462  -0.59291635
H    0.74266132  -2.65559097   0.76548087
S    0.40169941   0.60161648   0.12497103
O    0.52669999  -0.32665658  -1.03381453
O    1.68871336   0.63587936   0.87498514
O    0.07727489   1.96993624  -0.36752241
O   -0.68589060   0.12730691   1.02623593
