29
Energy:   -779.22973875
O    1.32007116   2.57403955   0.12322453
H    2.02835381   1.93300875   0.06283372
H    0.53093261   2.04819032   0.25351186
O    0.21070273  -1.89252965   3.03262500
H    0.69382472  -1.57998684   2.26767926
H   -0.60915034  -2.23401109   2.67560509
O   -1.68481110   2.40579514  -1.60840572
H   -0.89250508   2.37288114  -2.14450243
H   -1.52255793   1.78086673  -0.90174439
O    3.14842618   0.54878445  -0.38989196
H    2.70673268   0.46595380  -1.23504152
H    2.64711921  -0.01506926   0.19916845
O   -1.47075728   0.31032084   2.78206705
H   -1.28343983   0.56451935   1.87844814
H   -0.76436392  -0.29292179   3.01301859
O   -2.32560083  -2.18832182   1.93478652
H   -2.29489900  -1.28194073   2.24099327
H   -1.90380457  -2.16586521   1.07582466
O    0.90887834   2.10376947  -2.56160627
H    1.06395224   2.48496049  -1.69738562
H    0.76742007   1.17252857  -2.39127779
O   -0.48283898  -2.62495395  -2.88599530
H   -0.87333452  -2.66117315  -2.01282107
H    0.07023405  -1.84388766  -2.86933609
S    0.04888720  -0.60018882  -0.24248629
O    0.62035541  -0.37937828  -1.60070821
O   -0.89975919  -1.74844496  -0.28344791
O    1.14920426  -0.89896394   0.71675081
O   -0.67425167   0.62603192   0.19746016
