29
Energy:   -772.94910789
O   -3.37443278  -1.14378604   0.84486680
H   -2.43830020  -1.31493279   0.74192782
H   -3.41583674  -0.31489624   1.32179369
O   -3.29022941   1.53163261   1.59577097
H   -3.31075013   1.54093375   0.63883616
H   -2.36813066   1.39741079   1.81474640
O    1.59439325   1.41716097   3.25524209
H    1.99996607   0.98799860   2.50187485
H    0.65871254   1.42235101   3.05348355
O    1.52345937  -2.63248565   0.06981565
H    0.59790478  -2.41527173   0.18116493
H    1.99152318  -1.86983998   0.40969756
O    1.36455471   1.07013880  -2.54797412
H    2.13301869   1.04377913  -1.97788630
H    0.62051543   1.10076787  -1.94655974
O    2.08912368  -1.62304939  -2.43514936
H    1.76394582  -2.00335921  -1.61914958
H    1.60080665  -0.80527274  -2.53012139
O    3.44892859   0.22302666  -0.91041367
H    2.76076329   0.27567843  -0.24717302
H    3.18998855  -0.51129883  -1.46714338
O   -3.15587871   0.84528260  -1.08837290
H   -3.28913328   0.01956877  -0.62289279
H   -2.20898497   0.98350683  -1.06560969
S   -0.13425501   0.21327782   0.60762698
O   -0.70090134  -1.16348357   0.54812892
O   -0.49701404   0.95373301  -0.63343386
O   -0.68826573   0.92762831   1.79205744
O    1.34916108   0.13523353   0.72375541
