29
Energy:   -774.19304134
O    2.49170802  -1.68759854  -2.48711554
H    1.78146095  -2.30574964  -2.65936581
H    2.04879849  -0.86384071  -2.28343432
O   -0.33871499  -2.73217647   0.17865386
H    0.59571676  -2.55782715   0.29122144
H   -0.74296439  -1.86498394   0.15052228
O   -0.18358464  -2.40326288  -2.54496713
H    0.00144908  -1.46642175  -2.47921709
H   -0.35068911  -2.67872001  -1.64361741
O   -2.93255245   1.67973629  -1.19232294
H   -2.12692551   2.19640748  -1.17657617
H   -2.67808049   0.82755341  -0.83840175
O    2.34151633  -1.95862880   0.25753868
H    2.03425174  -1.08261067   0.49080365
H    2.48331486  -1.91926818  -0.68828147
O   -1.11070035   3.30727400   1.57481916
H   -1.56827306   2.53093224   1.89754588
H   -0.75474282   3.04097491   0.72710996
O   -1.60600012   0.70810485   2.49556337
H   -0.69965538   0.91493690   2.72357994
H   -1.55277114   0.33352641   1.61630827
O    0.91061490   1.87715724   2.78011904
H    1.18107266   1.34676543   2.03060656
H    0.34927543   2.55525172   2.40419653
S    0.14890503   0.64587069  -0.49753537
O    0.61835436   0.12508333  -1.81225886
O    1.23068712   0.48674121   0.51465301
O   -0.19872781   2.08865462  -0.63029812
O   -1.05469357  -0.11699641  -0.06223751
