29
Energy:   -778.02959280
O    1.18640728   2.74900474  -1.92882747
H    1.03341091   1.93776076  -2.41329331
H    1.34221340   2.46490327  -1.02813737
O   -0.76303412  -3.94826714   1.37403105
H   -1.02244009  -3.44210197   0.60413676
H   -0.71099567  -3.30298549   2.07910936
O   -1.51645999   2.77338265  -1.41838199
H   -1.63275127   1.82338450  -1.43293208
H   -0.59213172   2.90526947  -1.62922544
O    0.71524627   0.32150803  -3.07849712
H   -0.20895833   0.33627141  -2.82978092
H    1.15291477  -0.11835143  -2.34966120
O    1.43969573   1.74766963   0.58200641
H    0.59261071   1.99594505   0.95219303
H    1.31088626   0.85313220   0.26666095
O   -0.07449378  -1.78406505   2.96219604
H    0.71107345  -1.97402294   2.44932961
H   -0.58920659  -1.19992172   2.40534853
O   -1.16047444   2.36473207   1.28729164
H   -1.27200026   1.41507609   1.33142044
H   -1.37104329   2.58923758   0.38093084
O    1.71162509  -2.71385175   1.02857962
H    0.94486434  -3.28473055   0.97951641
H    1.49595968  -1.97310309   0.46200068
S   -0.80383049  -0.75813482  -0.33331617
O   -1.42837868   0.10749575  -1.37289458
O    0.67974590  -0.66267863  -0.43326227
O   -1.24073649  -0.30597750   1.01752316
O   -1.22595268  -2.17137894  -0.54463099
