29
Energy:   -774.61150966
O    0.49722331  -2.04509533  -2.36992143
H    0.89454529  -2.63435392  -1.72871835
H   -0.05045861  -1.45775566  -1.84904862
O    0.89772412   2.90040903   0.34884362
H    1.20716651   1.99514743   0.31755976
H    0.40749252   2.95825035   1.16894069
O   -0.63025158   2.80261631   2.64764550
H   -0.45031198   1.86749743   2.55065961
H   -1.45726735   2.93713160   2.18484706
O   -1.92704202  -3.08788013   0.15197981
H   -2.00367403  -2.28999754  -0.37122450
H   -1.14255998  -2.95199946   0.68335184
O   -1.21716964   2.08935318  -1.28422701
H   -0.46477640   2.45198131  -0.81664055
H   -1.14341711   1.14307721  -1.16031491
O    2.80922620  -0.72728444  -1.60644276
H    2.43184267  -0.28205072  -0.84777257
H    2.05284319  -1.05294433  -2.09435896
O   -2.70452249   1.94552204   1.02307759
H   -2.35600709   2.06834847   0.14008125
H   -2.15512796   1.26094402   1.40485034
O    2.16465736  -3.12016530  -0.37806846
H    2.59662944  -2.32981021  -0.70206042
H    1.53337178  -2.80136042   0.26696938
S    0.06091606  -0.46320889   0.70413353
O   -0.77277909  -0.48306649  -0.53063693
O    0.34191085  -1.86122218   1.13622236
O    1.34557889   0.23801585   0.42480349
O   -0.67104642   0.25343726   1.78614519
