29
Energy:   -776.77011735
O   -2.50936726   2.41347770  -0.12312162
H   -1.98215505   1.85414013   0.44733488
H   -2.25279351   2.16134092  -1.01015533
O    2.76100177  -1.59881770   0.17821537
H    2.75289669  -0.66890671  -0.04857025
H    1.85565519  -1.79494782   0.41928051
O    1.98113161  -1.36374824   2.86929077
H    2.66742535  -1.42995766   2.20532611
H    1.16686093  -1.51178177   2.38837375
O   -4.10960903   0.23834024  -0.76448068
H   -3.49548239  -0.44561661  -0.49749128
H   -3.75462479   1.04159173  -0.38368535
O    1.30166624   1.26524451   2.33937330
H    1.56740879   0.38966050   2.62038113
H    0.42873011   1.14290240   1.96621546
O    1.73373097  -1.70776901  -2.40304004
H    2.22857763  -1.86907102  -1.59970929
H    0.97312675  -1.20095059  -2.11870194
O    2.19713014   1.04371582  -0.28346895
H    1.90995273   1.22799918   0.61084679
H    1.41889635   0.69531481  -0.71844107
O   -2.07616879   1.04068180  -2.49827270
H   -1.30539468   0.60633376  -2.13292234
H   -2.81849571   0.60067935  -2.08405000
S   -0.75324000  -0.64448557   0.22465495
O   -0.13323180  -0.23396526  -1.06653168
O   -0.96101079   0.55757620   1.08021254
O   -2.06561018  -1.29838995  -0.04028580
O    0.14689277  -1.60316329   0.92522475
