29
Energy:   -777.90877796
O    0.22352009   2.93222393   0.59107800
H    0.49237667   2.01575074   0.52763619
H   -0.72361005   2.89577767   0.72467448
O    1.48412539  -3.12037143   0.51740065
H    2.08637715  -2.52930012   0.06556065
H    0.61290383  -2.80371850   0.27878852
O   -2.53320547   2.70028355   0.21962543
H   -2.15849558   2.79132160  -0.65646613
H   -2.44367808   1.76931626   0.42338166
O    2.55749157  -1.08023086  -1.07085540
H    2.00213503  -0.51481045  -0.53409594
H    1.99029288  -1.36242772  -1.78840848
O    1.27252951  -1.14789944   2.46332259
H    1.07461617  -0.49213856   1.79471222
H    1.32956268  -1.97274188   1.98102185
O   -1.42778323  -0.66580761   3.13078868
H   -1.73052484  -0.38256202   2.26803072
H   -0.50460954  -0.88333021   3.00169146
O   -0.83316129   2.89675249  -1.97027950
H   -0.27930492   3.04250049  -1.20331634
H   -0.90217039   1.94452004  -2.03900334
O    0.55408937  -1.84275076  -2.87566753
H    0.19522973  -2.26379766  -2.09453303
H    0.14377080  -0.97811362  -2.89219445
S   -0.71990857  -0.29678185  -0.31853033
O   -1.86700879   0.11684932   0.53772333
O    0.54642464   0.24028938   0.25423028
O   -0.64993652  -1.78422978  -0.37051675
O   -0.90911359   0.23996369  -1.69555818
