29
Energy:   -771.55821421
O    2.13258000   1.68508231  -2.19801709
H    2.36774215   0.75973509  -2.12972995
H    1.62903558   1.86396805  -1.40386675
O   -0.46352590   1.74166490  -3.24256313
H    0.45985942   1.76601268  -2.99156794
H   -0.91766946   1.43593549  -2.45737843
O   -1.47969490  -2.73373737   0.52704231
H   -1.99410121  -2.21495130   1.14549119
H   -0.75203271  -2.16235930   0.28154956
O    0.93829097   0.81169365   3.50213129
H    1.67861678   0.81432943   2.89538374
H    0.16601802   0.76847738   2.93825304
O   -3.19708780  -1.17905477  -1.01648877
H   -2.64889161  -0.39717630  -1.08266153
H   -2.60420771  -1.86200315  -0.70295000
O   -3.17087272  -0.88401105   1.73563034
H   -3.39285976  -0.85463167   0.80499053
H   -2.41526064  -0.30257747   1.82058461
O    2.75663006   0.43437131   1.37596295
H    2.28352967  -0.39696088   1.33998149
H    2.17789959   1.05896652   0.93871734
O    2.76275885  -0.84020802  -1.17060817
H    1.84596375  -0.96995342  -0.92794642
H    3.11318131  -0.26841329  -0.48760984
S   -0.32222696   0.55324774   0.17406411
O    0.30112915  -0.78031777  -0.05643577
O   -1.37537366   0.79329412  -0.85226906
O   -0.93500388   0.58706380   1.53180523
O    0.72034053   1.61295081   0.07315604
