29
Energy:   -773.50610230
O   -0.80045085  -0.76882928  -3.47306022
H   -0.85961153   0.18078189  -3.57780033
H   -0.15170224  -0.89392397  -2.78045036
O    1.62441643   2.20234618   2.58857095
H    0.68115131   2.06987438   2.68309074
H    1.85014107   1.74942675   1.77607836
O   -1.42259137   1.93371323  -3.21004923
H   -2.03109420   1.48206601  -2.62526640
H   -0.60677643   1.98767583  -2.71228838
O   -1.04184849   1.43713292   2.70233336
H   -0.99149892   1.36065991   1.74952244
H   -0.77871027   0.57577954   3.02646371
O   -0.19580138  -1.24397081   2.20449165
H    0.76041420  -1.20058082   2.20545047
H   -0.46229869  -0.64969339   1.50303219
O   -2.62900110   0.05548348  -1.54864141
H   -2.09616849  -0.44366628  -2.16764931
H   -2.02778046   0.27473914  -0.83681801
O    0.72467797  -2.97644694   0.18588618
H    0.79171864  -2.29295717  -0.48088149
H    0.19191765  -2.58499969   0.87810532
O    2.51412711  -1.48617204   1.67570520
H    2.44649367  -0.63976838   1.23382467
H    2.11193085  -2.10691070   1.06812514
S    0.69216498   0.55060840  -0.60511608
O    0.81935346  -0.75579413  -1.31026536
O    1.84814907   0.73168487   0.31738708
O    0.67683392   1.65524824  -1.60493397
O   -0.57567656   0.57129464   0.17734794
