29
Energy:   -771.28729975
O    0.65340154  -3.21588585  -0.52011170
H    0.04499346  -3.43161780   0.18666349
H    0.37858843  -2.34834304  -0.81689288
O   -1.42066117   0.00163184  -3.27981930
H   -1.03517305  -0.43422534  -2.51978031
H   -1.50190132   0.91797999  -3.01536145
O    1.63603871   2.31854657   0.80321370
H    0.85584024   2.85728499   0.93467895
H    1.35674134   1.43194281   1.03159626
O   -0.62449862  -3.46281059   1.95248806
H   -1.16906291  -2.73762166   1.64624862
H    0.22529261  -3.06316073   2.13787063
O    1.38465143   1.38844851  -1.80100168
H    0.89003566   0.58634606  -1.63301730
H    1.54977396   1.75495019  -0.93229983
O   -1.14479581   2.47984611  -2.07126166
H   -1.46391043   2.04416307  -1.28095919
H   -0.22538613   2.22090194  -2.13343566
O   -0.84411937   2.85417361   2.02789163
H   -1.28745022   2.38031271   1.32422591
H   -0.29648276   2.19451745   2.45354376
O    1.81048819  -2.14406894   1.75955268
H    1.65050951  -2.51279229   0.89082847
H    1.35464849  -1.30242555   1.75069696
S   -0.80531635  -0.20262767   0.38825532
O   -0.23308661  -0.66581049  -0.90716539
O   -1.70341667  -1.25604666   0.93945787
O    0.29916195   0.06279245   1.35250625
O   -1.58392407   1.04855402   0.16822254
