7
Energy:   -430.56750882
O    1.17596525   0.02391281  -1.05924807
H    1.72253393   0.52075592  -1.66805136
H    0.68153991  -0.57722319  -1.61639342
O   -1.18429945   0.12758369   0.99465246
H   -1.53367249  -0.73016870   0.75292706
H   -1.63922431   0.35192897   1.80640637
Ca   0.88177622   0.22614850   0.93058753
