7
Energy:   -430.00730592
O   -0.57923763  -1.40491821  -0.22988471
H    0.10763937  -1.74869391  -0.80106777
H   -1.24639042  -1.07219777  -0.83024802
O    0.47980066   1.22237025   0.36419111
H    0.12763274   2.10768842   0.45595899
H    1.11082386   1.28820368  -0.35254282
Ca   0.06094661  -0.33024819   1.48926207
