7
Energy:   -442.64043189
O    1.10380318  -0.83451815   0.76323853
H    0.92336632  -0.21840440   1.47322319
H    1.33579461  -1.65045371   1.20670327
O   -0.98593260   0.80608761  -0.85625119
H   -1.67197557   1.10904980  -1.45105435
H   -1.33171257   0.98260451   0.01868301
Ca   0.63427225  -0.20173462  -1.24504540
