7
Energy:   -446.56217861
O   -1.67783884  -0.90809590  -0.51523713
H   -2.52468640  -0.88591439  -0.06960383
H   -1.81868414  -1.47981142  -1.26991310
O    1.67779153   0.85702784   0.60113084
H    2.27476008   0.89386336   1.34846178
H    2.20166945   1.16179692  -0.13974673
Ca  -0.15000965   0.43881913  -0.00225045
