7
Energy:   -444.11167534
O   -1.03266501  -0.63440454   0.82211190
H   -1.39307511  -0.96172427   1.64624671
H   -0.75261340  -1.42069936   0.35355732
O    0.92912989   0.66417513  -0.84529724
H    1.09688349   1.19685682  -1.62269082
H    1.62424154   0.00613077  -0.85070626
Ca  -0.46853658   1.27849887   0.57465334
