7
Energy:   -427.85503178
O    0.99679991   0.42308657   1.08923071
H    0.43386691   1.17416541   1.27689761
H    1.49041156   0.28520228   1.89766581
O   -0.93357781  -0.44333043  -1.19554102
H   -1.62170357  -1.04351630  -1.48275472
H   -1.31522686   0.42799630  -1.30215046
Ca   1.03202582  -0.91656557  -0.25413657
