7
Energy:   -448.49772805
O    1.49265254  -0.81769987  -0.26130418
H    2.25730052  -1.23478451  -0.65827484
H    1.61913770  -0.93157010   0.68064429
O   -1.52770105   0.76976438   0.18013492
H   -1.18598429   1.17410273   0.97761344
H   -2.32201735   1.26543552  -0.01887159
Ca  -0.35447714  -0.22455610  -0.96514815
