7
Energy:   -444.61758954
O    1.24785456  -0.17390961  -1.63071686
H    1.76679796  -0.95565039  -1.81995467
H    1.80205820   0.55521512  -1.90904635
O   -1.30795660   0.17531131   1.50807083
H   -2.22982951  -0.05933928   1.61447234
H   -1.01764595   0.41303634   2.38866062
Ca  -0.25770480   0.05027671  -0.09533243
