7
Energy:   -434.54951842
O   -0.15916879  -0.85449058  -1.28928008
H   -0.60869863  -1.06774736  -2.10700639
H   -0.61947797  -1.36404997  -0.62242437
O    0.22049510   0.86484634   1.16501289
H   -0.55398241   0.45674024   1.55213800
H    0.48574669   1.52842745   1.80182805
Ca   1.35541713   0.48574345  -0.48776437
