7
Energy:   -429.45667090
O   -0.99225262   1.38571569  -0.75362305
H   -1.65978143   1.73093377  -0.16078108
H   -1.09028747   1.90325274  -1.55285794
O    0.95189634  -1.40768119   0.78534775
H    1.77038479  -1.60446577   0.32973351
H    1.13485845  -1.60577610   1.70377854
Ca  -0.10465815  -0.43990736  -0.41614776
