7
Energy:   -447.58413011
O   -1.42968104   1.42876620  -0.51004887
H   -1.51731179   2.28396576  -0.08911372
H   -2.24993991   1.31204844  -0.98940699
O    1.50250928  -1.43333879   0.38398130
H    1.21376541  -2.33034736   0.55201234
H    2.31899733  -1.34786918   0.87619473
Ca   0.13749569   0.10069972  -0.17459163
