7
Energy:   -446.78320908
O   -0.22840641  -1.30152999   1.02788245
H   -0.47016017  -0.58056445   1.60925638
H    0.00502947  -2.01792641   1.61823464
O    0.17928690   1.20744529  -1.08166793
H    0.92249686   1.55054744  -1.57780472
H   -0.30394729   1.98576488  -0.80429601
Ca  -0.08739510  -0.89379247  -0.85980985
