7
Energy:   -444.82046748
O    1.14450838   0.93064303   0.29617998
H    1.09277443   1.53134503   1.03962638
H    1.22998363   1.50104075  -0.46773904
O   -1.09278987  -0.99083349  -0.20808244
H   -1.85806415  -1.41656879   0.17835848
H   -1.42854606  -0.56243785  -0.99546849
Ca   0.99704102  -1.08325367   0.12297416
