7
Energy:   -428.30775484
O    0.22658102  -0.29168986  -1.60729924
H    0.84640480   0.34727485  -1.95911515
H   -0.00415476  -0.84019623  -2.35705494
O   -0.09251022   0.19463088   1.64681451
H    0.13043222  -0.55164943   2.20322642
H   -0.16526594   0.93227538   2.25247039
Ca  -1.14459161   0.29593912  -0.22630150
