7
Energy:   -431.38657978
O    0.89309420   0.18796053  -1.16406459
H    0.40420448   0.94663487  -1.48286222
H    0.95098924  -0.39545957  -1.92070256
O   -0.72282983  -0.18713412   1.28443381
H   -1.31170351   0.44264064   0.86868942
H   -1.29335332  -0.90623540   1.55577888
Ca   1.11292373  -0.10023315   0.89451161
