7
Energy:   -447.70080706
O    0.69436618   1.31801355   0.06887849
H    1.63050641   1.22456445   0.24534544
H    0.32921926   1.65961365   0.88509473
O   -0.70276741  -1.23040470  -0.18879677
H   -1.25118806  -1.33487343   0.58873325
H   -0.35929777  -2.10734107  -0.35980282
Ca  -0.37929521   0.47668407  -1.32425185
