7
Energy:   -452.05891417
O   -1.68125242  -0.84492572  -0.37534628
H   -2.46945281  -1.02277071  -0.88851599
H   -1.77526799  -1.39025190   0.40568655
O    1.66660651   0.93171282   0.31484235
H    2.41257963   1.50553682   0.14025148
H    1.87401041   0.51646647   1.15197193
Ca  -0.02168689   0.28971991  -0.80748878
