7
Energy:   -450.28538333
O    0.65716122   1.04663546  -0.95288856
H   -0.02393763   1.21342738  -1.60443800
H    1.43893976   0.84823843  -1.46834252
O   -0.66527142  -0.94690725   0.95286780
H   -0.46546926  -1.76047193   0.48980901
H   -1.25253456  -1.21173243   1.66083777
Ca   0.35593354   0.85317487   1.04021418
