36
Energy:   -488.41115225
O   -1.12200695   3.01664061  -1.15721785
H   -0.62237853   2.29085798  -1.53117355
H   -1.20465198   3.64559058  -1.87403273
O    1.61163005   0.79085913   0.61682872
H    1.00260187   0.23884877   1.10733977
H    1.38282888   1.68498203   0.87065173
O    1.49138793  -1.59889447  -2.65816864
H    1.71694372  -2.04382686  -3.47510903
H    0.84463890  -2.17041785  -2.24427426
O    1.14101531  -3.04312468   1.13317050
H    1.58288369  -3.77513340   1.56345810
H    1.84234065  -2.56784243   0.68765800
O    0.32761625   0.74920473  -1.76706380
H    0.74425657   0.05207769  -2.27367665
H    0.85722322   0.81796464  -0.97269590
O   -1.67476280  -0.67953263  -0.58025582
H   -1.02963801  -0.19117609  -1.09167907
H   -2.32445739  -0.02451226  -0.32515369
O   -2.97233946   1.53823509   0.31372206
H   -2.60308924   1.62594204   1.19246754
H   -2.47657461   2.16078071  -0.21814823
O   -1.47456118   1.56218813   2.66145812
H   -1.07609646   0.70425747   2.51512734
H   -1.74123849   1.54930291   3.58066921
O   -0.30796966  -3.02121195  -1.24672176
H    0.10998828  -3.18820781  -0.40194050
H   -0.99496689  -2.38354339  -1.05269733
O   -0.31404889  -0.77313126   1.75920240
H   -0.86697904  -0.80076445   0.97834613
H    0.14190934  -1.61475631   1.76030310
O    2.89137155  -1.53439792  -0.24989042
H    2.71277957  -0.64567631   0.05753545
H    2.57376221  -1.54436571  -1.15280614
O    0.33282317   3.11631865   1.21539506
H   -0.16892296   3.26225529   0.41340680
H   -0.29517912   2.72696002   1.82387253
