36
Energy:   -474.81778371
O   -0.22873537   0.82776229   3.48145413
H   -0.88919339   1.02212055   2.81643389
H    0.57017408   1.24120616   3.15428489
O    0.59333190  -2.31815795  -2.14858425
H   -0.34079652  -2.16656138  -2.29230069
H    0.69438429  -2.30846316  -1.19678265
O    1.55411427   0.86111887  -0.27208223
H    1.78535685   0.64339488  -1.17505232
H    0.80815373   1.45557633  -0.35205136
O   -2.00905393  -1.38384637  -2.42112947
H   -1.68732590  -0.51051388  -2.64476598
H   -2.67521760  -1.57084510  -3.08255919
O   -0.67931907   2.42694472  -0.53954132
H   -1.23126604   2.08686876   0.16468502
H   -0.65797776   3.37252442  -0.39238346
O    2.25859480   1.23095032   2.38418332
H    2.17715733   1.18572422   1.43152683
H    2.35462614   0.31950764   2.66037542
O   -0.88592534   1.01139591  -2.92626641
H    0.03449983   0.77755143  -3.04612518
H   -0.89066703   1.58065607  -2.15675212
O    1.33542407  -1.36722913   3.20455636
H    1.39302089  -1.89030094   4.00412521
H    0.67761718  -0.70019928   3.40100766
O    1.70849082   0.01128354  -2.89231836
H    1.38131043  -0.86605323  -2.69366026
H    2.38976308  -0.12980690  -3.54973257
O    0.70222681  -1.60601191   0.53720992
H    1.02585918  -0.74214570   0.28181000
H    0.95793208  -1.69632429   1.45519158
O   -1.98189185  -1.12867804   0.33209713
H   -1.07659959  -1.40382670   0.47691079
H   -2.12775844  -1.26633024  -0.60385515
O   -2.09924723   1.28239819   1.49197624
H   -2.11885462   0.40715246   1.10494611
H   -2.96855796   1.39419676   1.87672522
