36
Energy:   -477.39194748
O    0.76368982  -0.80981344   1.40835189
H    0.22396757  -0.54462459   2.15307105
H    0.13651821  -1.12537070   0.75772817
O    0.00710566  -0.27395321  -2.73542869
H   -0.46046658  -0.37761922  -3.56419972
H   -0.22482646   0.60560967  -2.43742117
O    0.57679595  -3.87694993  -0.72849477
H    0.77852185  -4.76379602  -0.43009485
H    1.37502427  -3.37798374  -0.55501237
O    2.63078341  -2.22102111  -0.09305752
H    2.76638616  -1.53016240  -0.74156195
H    2.16358761  -1.79002176   0.62262361
O    1.50270225   1.48271888   0.15525455
H    1.26908231   0.70674574   0.66468486
H    2.11519496   1.16029946  -0.50590371
O    2.62584773  -0.09094748  -1.88941910
H    3.20418334   0.02089519  -2.64390633
H    1.75618002  -0.21417880  -2.26984512
O   -2.46918478   2.47802153   0.19420875
H   -3.33230712   2.89184412   0.19262018
H   -2.64014191   1.56726492   0.43405851
O   -2.72368833  -0.08345708   0.97952816
H   -2.24851071  -0.71361733   0.43792301
H   -2.25159164  -0.07858645   1.81219427
O   -1.03098385   0.30925470   3.16436418
H   -0.78777400   1.17993963   2.84973966
H   -1.12015327   0.41267822   4.11177340
O   -0.34811719   2.63183926   1.98206451
H    0.41177138   2.48939712   1.41769633
H   -1.07869427   2.75132554   1.37525976
O   -0.95493208  -1.62655622  -0.53279559
H   -0.67672498  -1.18083589  -1.33289936
H   -0.58868376  -2.50761411  -0.60915665
O   -0.45809608   2.12328177  -1.64949364
H    0.25123514   2.03008445  -1.01357279
H   -1.23027780   2.32274663  -1.12017236
