36
Energy:   -477.36362415
O   -2.61471613   1.37465492   1.90874158
H   -2.10404666   0.73920679   2.41039306
H   -3.12044505   1.85007671   2.56786542
O    1.64098252   2.50312836  -1.47205155
H    1.35331640   1.98316444  -2.22246315
H    0.88110455   2.52590233  -0.89041707
O   -3.20784897  -0.61621065   0.04226590
H   -3.19254131   0.13042344   0.64104387
H   -2.70608820  -0.32391470  -0.71867501
O   -0.39751534   1.86533377   0.32140541
H    0.16184179   1.22688167   0.76381965
H   -1.18991416   1.90212044   0.85711307
O    0.83900418  -2.41403347   0.23714960
H   -0.08959825  -2.50158000   0.45224257
H    1.23045328  -3.23936207   0.52321280
O    2.27743870  -1.12144599  -1.77400270
H    2.76078196  -0.51802096  -1.20965407
H    1.73227232  -1.62827377  -1.17221280
O   -1.41001627   0.40010711  -1.74587276
H   -1.06992240   0.97375324  -1.05921555
H   -0.73301528   0.40822536  -2.42250826
O    0.86358635   0.57272765  -3.32094716
H    1.36654050  -0.08942970  -2.84679886
H    1.04229616   0.39426151  -4.24422636
O   -1.73040689  -2.51597751   1.20953974
H   -2.32441466  -3.23941206   1.40961240
H   -2.27303007  -1.88291863   0.73940318
O    1.23364825  -0.00992414   1.48119498
H    2.04831193   0.33581072   1.11647271
H    1.12554313  -0.86306283   1.06083858
O    3.29981257   0.87688054  -0.12605191
H    4.16802544   1.27265163  -0.04987125
H    2.78170678   1.52491665  -0.60338561
O   -1.04735373  -0.51601322   3.01973781
H   -0.16454978  -0.30433599   2.71628800
H   -1.29288002  -1.29431425   2.51954166
