36
Energy:   -476.00126015
O   -2.96939163  -0.62069245   2.59723539
H   -3.31392842  -1.26465229   3.21597764
H   -2.22575586  -0.22501794   3.05185542
O    0.43129585   1.88838365  -1.90011445
H    0.54347603   1.18295345  -2.53730806
H    1.00428758   1.64759387  -1.17214975
O   -1.97693830  -0.53841393   0.05156307
H   -1.98773879   0.40229474  -0.12502228
H   -2.48661919  -0.63751121   0.85570047
O   -1.72873154   2.17455689  -0.33798192
H   -1.01645566   2.13691757  -0.97632213
H   -2.33013424   2.83188351  -0.68793670
O    1.86963738   0.93088681   0.22735799
H    2.46697826   0.44650259  -0.34254344
H    1.36282708   0.25342017   0.67503435
O    1.41142421  -2.73203327  -0.44434514
H    1.12058554  -2.28260065   0.34916291
H    2.07544933  -2.15294047  -0.81844944
O   -0.70750550  -1.95948064  -1.98955025
H   -1.28601302  -1.54838921  -1.34723824
H   -0.04118732  -2.40203653  -1.46381627
O    0.90131014  -0.37204764  -3.42505772
H    0.70060063  -0.49213686  -4.35324204
H    0.28262383  -0.94325139  -2.96988153
O   -0.61891699   0.43857839   3.61237003
H   -0.43660171   1.18690966   3.04404504
H   -0.26650328   0.69335128   4.46508757
O    0.00417519   2.36008720   1.82254184
H    0.80579741   2.12215404   1.35668621
H   -0.66413027   2.41184125   1.13922552
O    2.98366269  -0.77706832  -1.66980963
H    2.33958177  -0.63319789  -2.36312984
H    3.80589315  -0.93251142  -2.13457447
O    0.33511366  -0.97311294   1.41167967
H   -0.47768968  -0.86749662   0.91728330
H    0.12494182  -0.65523784   2.28975431
