36
Energy:   -480.69847759
O    1.60967696   0.46894290   0.79977432
H    1.56576371   0.32992156   1.74580632
H    1.23848810  -0.32863389   0.42251852
O    0.37395366  -1.69930116  -0.23355227
H    0.29881774  -2.22740053   0.56124173
H    0.93501144  -2.21537500  -0.81244243
O    0.86023154  -0.13092466   3.39868866
H    0.05396319   0.36741344   3.26518839
H    1.13447751   0.09024206   4.28869218
O   -1.42011470   1.14323856   2.74181794
H   -1.28137216   1.63010150   1.92944682
H   -1.96829128   0.40131092   2.48632298
O    2.53882366   1.04915590  -1.76236893
H    2.45501422   0.91070978  -0.81894935
H    2.38866223   0.18514492  -2.14599428
O   -0.22818112  -2.46623177   2.30196453
H    0.22277463  -1.78350860   2.79871381
H   -1.12634155  -2.14669686   2.21572578
O   -1.89051635  -0.33144736  -0.72955109
H   -1.57478082   0.53036256  -0.45784060
H   -1.13207472  -0.90699081  -0.63081981
O   -0.60797323   1.91168252   0.15519405
H   -0.39616683   2.33549850  -0.67652099
H    0.20804864   1.48983558   0.42423924
O    0.36862159   2.52077230  -2.37864745
H    1.19608144   2.07750864  -2.19140594
H    0.62004542   3.29682467  -2.87940750
O    1.68720545  -1.35552859  -2.84496731
H    0.84103248  -0.93431238  -2.99596423
H    1.95505417  -1.67208157  -3.70768575
O   -2.64426978  -1.13434625   1.74974441
H   -3.55876229  -1.41457771   1.78723600
H   -2.50573898  -0.88907551   0.83493113
O   -0.62087116   0.04792054  -3.16318386
H   -0.36310742   0.96100741  -3.03644760
H   -1.24770327  -0.12423047  -2.46056206
