36
Energy:   -478.67764151
O    0.02611380   0.97003632   1.75777948
H   -0.02197556   0.02753031   1.59777421
H    0.94249517   1.12853706   1.98439488
O   -2.87265695  -1.40236904   0.93370988
H   -3.01817681  -1.45944771  -0.01064061
H   -2.93972474  -0.46808940   1.13082738
O    2.83009150   1.28952428  -0.94375169
H    2.96203406   1.31417145   0.00399064
H    1.94831554   1.63900426  -1.07246355
O   -2.66457118   2.03386522  -1.25152417
H   -2.84634571   1.85925777  -0.32810547
H   -2.85120178   1.20565064  -1.69363443
O    2.57171568  -1.66122152   1.24891344
H    2.74122400  -1.69804552   0.30756187
H    1.63999236  -1.86379899   1.33309093
O   -2.71156420   1.28895695   1.42530968
H   -1.79716336   1.28447044   1.70829875
H   -3.20198425   1.55681772   2.20246515
O    2.81492434   0.99813878   1.83331507
H    2.78180322   0.04908684   1.71316821
H    3.46412476   1.13006196   2.52423253
O   -0.18593347  -1.60277719   0.95099149
H   -0.08626598  -1.47042454   0.00823966
H   -1.12746319  -1.71854308   1.07886600
O   -2.76435715  -1.21967015  -1.87165840
H   -1.80825059  -1.18053053  -1.89532658
H   -3.00464884  -1.69858204  -2.66483880
O    2.72473642  -1.36435248  -1.51908895
H    2.84584855  -0.42236447  -1.39983169
H    3.40986094  -1.61800366  -2.13755262
O    0.07064901   1.65892734  -0.89621776
H   -0.81252029   1.96261303  -1.10602444
H    0.05287988   1.50319834   0.04806216
O    0.00796593  -0.92502266  -1.67639479
H    0.92212978  -1.18000596  -1.80097341
H    0.04138442   0.01843272  -1.51825878
