36
Energy:   -477.04313688
O    1.42541864  -1.47171956   1.34278213
H    1.88814142  -1.46847335   0.50486272
H    1.91044525  -2.09608968   1.88235881
O    2.50662082   1.56828897  -0.88059029
H    2.05904627   1.55605898  -0.03456470
H    3.17793081   2.24419778  -0.78719846
O    0.75306831  -1.50588757  -2.99275305
H    0.70246850  -2.12820716  -3.71828033
H   -0.09226216  -1.58364377  -2.55048365
O   -1.47763219   1.23109175   0.69978126
H   -1.52300453   0.28060899   0.80349107
H   -1.71434963   1.38426603  -0.21495058
O   -1.93035007  -1.00812632   3.65967752
H   -1.56401579  -0.12486425   3.70302676
H   -2.54800737  -1.04786441   4.38985023
O   -1.94260667   1.28134629  -2.00824137
H   -1.05101004   1.35654293  -2.34828954
H   -2.47314461   1.80613142  -2.60770938
O   -1.30666172  -1.46505380   1.03509684
H   -1.63866790  -1.46712073   1.93287157
H   -0.36113661  -1.58110190   1.12862203
O    1.15222091   1.26613925   1.44656069
H    0.25503639   1.34543045   1.12251639
H    1.29407344   0.32337460   1.53202716
O   -1.62854570  -1.47323679  -1.73339544
H   -1.63383551  -1.61283571  -0.78644454
H   -1.90299349  -0.56283538  -1.84330238
O    0.60427621   1.25641499  -2.87631414
H    0.72780778   0.32463654  -3.05731336
H    1.28336636   1.46859182  -2.23596315
O   -0.94189315   1.51854643   3.43859591
H   -1.40667101   1.67077859   2.61577226
H   -0.01530537   1.56075667   3.20219533
O    2.65794362  -1.19864181  -1.02312539
H    2.76002435  -0.24739136  -1.05368588
H    2.06417729  -1.39965122  -1.74649848
