36
Energy:   -475.15022070
O   -0.41273670   2.61994420  -0.92331179
H   -0.51655178   3.45358323  -1.38211483
H   -0.95701641   2.00556655  -1.41578671
O    1.74010412   0.92319482  -0.66083549
H    1.92417435   0.78509722   0.26829262
H    1.05811220   1.59473572  -0.67315152
O   -1.91609108  -0.83065482   0.26826071
H   -1.09153317  -1.09792568  -0.13782103
H   -1.91513131  -1.26454574   1.12147205
O   -0.29012323   0.72675158   3.51771469
H   -0.76070116   1.15193811   2.80077349
H   -0.29760799   1.37133182   4.22531073
O    0.45483342  -1.47520053  -0.87577333
H    0.26788526  -1.52987904  -1.81294594
H    0.94820032  -0.66096358  -0.77658087
O    2.21702269   0.44895490  -3.32379556
H    2.16847436   0.68117221  -2.39646066
H    3.15219983   0.46720882  -3.52712377
O   -1.87741293   0.70452975  -2.13001688
H   -1.35829370   0.13262141  -2.69540871
H   -2.17000677   0.13622845  -1.41751823
O   -0.11567397  -0.93612563  -3.53087179
H    0.70056603  -0.43839688  -3.57830806
H   -0.19328726  -1.35219696  -4.38941281
O   -1.24161481  -1.76099511   2.81604305
H   -1.60397618  -2.22190510   3.57267246
H   -0.92482025  -0.93010777   3.17030186
O    1.93927877   0.17732099   1.94828846
H    1.85398254  -0.77485848   1.90021926
H    1.26062755   0.44815248   2.56660447
O   -1.59642671   1.66161976   1.37393952
H   -1.19278210   2.16087646   0.66397781
H   -1.82764211   0.82238262   0.97587883
O    1.18918999  -2.43361857   1.63120680
H    0.34041196  -2.34771444   2.06528997
H    0.99502982  -2.32295594   0.70046116
