36
Energy:   -492.96888329
O    1.31167777  -1.19940267  -0.72800479
H    1.45235847  -0.38133356  -0.25134587
H    1.43920276  -0.96632434  -1.64759368
O    1.40151612   1.13992510   0.65225628
H    1.64042955   0.83426920   1.52731439
H    0.45496973   1.27559519   0.69556226
O   -1.31704859   2.70020746  -1.74109803
H   -0.36288049   2.68761065  -1.81617401
H   -1.57091042   3.56866359  -2.05345995
O   -1.31343339   1.25678982   0.62001533
H   -1.45299293   0.40210029   0.21226444
H   -1.46737643   1.88663175  -0.08413844
O    1.23593636  -0.05065333  -3.24454213
H    0.28042749   0.00574461  -3.25188430
H    1.47006161  -0.27442811  -4.14528741
O    1.35307663   2.36413952  -1.86335302
H    1.59701320   2.07775939  -0.98317507
H    1.46979632   1.58682307  -2.40960159
O   -1.52663163  -2.46265381   1.91360682
H   -2.13700702  -3.00465461   2.41351567
H   -1.47960366  -1.64098616   2.40236289
O    1.60774366  -0.18689849   3.07203637
H    2.23784903  -0.28958711   3.78523628
H    1.56205713  -1.05236485   2.66569591
O   -1.17377985  -0.06195479   3.08390234
H   -0.22945872  -0.00543477   3.22983019
H   -1.34707208   0.57015206   2.38630462
O    1.25236087  -2.50491324   1.74615303
H    0.31136935  -2.67019443   1.80488067
H    1.39936348  -2.27827849   0.82786180
O   -1.39975825  -1.19731673  -0.54426883
H   -0.45433293  -1.29636637  -0.65648280
H   -1.61225406  -1.75457880   0.20442093
O   -1.43165747   0.20273276  -2.96670351
H   -1.64930678  -0.36963045  -2.23099910
H   -1.55170604   1.08880974  -2.62510760
