36
Energy:   -477.96778358
O   -2.63468870   1.38313333   1.58925006
H   -2.09894349   0.84252444   2.16972480
H   -3.04041717   2.02807127   2.16862154
O    1.78865401   2.43136230  -1.64224905
H    1.01504287   2.48435076  -1.08104510
H    2.46109792   2.03626521  -1.08731723
O   -3.29563262  -0.72813827  -0.04520753
H   -3.17746594   0.04809655   0.50226666
H   -4.18432857  -0.64494496  -0.39093897
O   -0.35062946   1.86314416   0.07714599
H    0.24485513   1.35144579   0.62468114
H   -1.16168139   1.90987395   0.58335044
O    0.48144451  -1.89338703  -0.12322949
H   -0.01713554  -1.36313745  -0.74490880
H   -0.18396626  -2.31216465   0.42274273
O    2.82020920  -1.22620519  -1.53771504
H    2.36103735  -0.79639824  -2.25928212
H    2.13924529  -1.71847274  -1.07924732
O   -1.03733842  -0.17294842  -1.58953099
H   -1.90007134  -0.41439599  -1.25244521
H   -0.80320924   0.61856127  -1.10483749
O    1.23952770   0.24397087  -3.20420136
H    1.45313525   1.09746379  -2.82716888
H    0.34968998   0.06361502  -2.90106369
O   -1.74798144  -2.49235161   1.42399943
H   -2.20385283  -3.31076397   1.62050475
H   -2.36974383  -1.99229051   0.89524402
O    1.27116894   0.17352503   1.45791953
H    2.12563138   0.46993464   1.14444364
H    1.08555302  -0.61143934   0.94254633
O    3.47598696   0.90592860  -0.03945492
H    3.34007087   0.13108572  -0.58477793
H    4.42708171   1.00430558   0.00495907
O   -1.03460511  -0.27762916   2.95794681
H   -0.13529475  -0.10501891   2.67923834
H   -1.23546499  -1.14186568   2.59880560
