36
Energy:   -475.54059624
O   -0.05306657   0.98874252   1.89770648
H   -0.89285770   1.07303014   2.34923532
H    0.22524258   0.09008823   2.07433135
O    1.29672415   0.38028709  -2.87383042
H    0.82668127   1.17545328  -2.62282792
H    2.05968474   0.36005164  -2.29615099
O   -2.19942991  -1.75189822   1.87493203
H   -2.27411804  -1.79240342   0.92151037
H   -1.26535528  -1.86973811   2.04770406
O    1.80578532   2.27516606   0.28163289
H    1.22848258   1.93451018   0.96493879
H    1.21402489   2.53918325  -0.42288564
O   -1.77509746   1.22554058  -0.20804037
H   -1.08578897   1.07492787   0.43879923
H   -2.56586054   1.36702178   0.31244850
O   -2.15108954  -1.42436853  -0.83550086
H   -2.05537713  -0.47636646  -0.74405117
H   -1.39543984  -1.69254523  -1.35828824
O   -2.74996089   0.79755607   2.55276016
H   -2.64928615  -0.13201465   2.34783403
H   -3.37647196   0.81734587   3.27617158
O    3.20489040   0.29162398  -0.87436922
H    4.13427097   0.52058220  -0.86651112
H    2.77732162   1.00777207  -0.40474309
O    0.54699858  -1.67003528   2.25578118
H    1.00783467  -1.83757634   1.43371553
H    1.03821007  -2.16503097   2.91146585
O    0.15295874  -1.98067310  -2.25229191
H    0.50748769  -1.14316593  -2.55082635
H    0.18256221  -2.54331958  -3.02610353
O    1.84875020  -1.98652538  -0.07331960
H    1.26410601  -2.10793180  -0.82143958
H    2.40709480  -1.24992951  -0.32213616
O   -0.02205197   2.57408670  -1.79837044
H   -0.74320186   2.15734605  -1.32666936
H   -0.42300632   3.32637579  -2.23371924
