36
Energy:   -488.38285925
O    1.22584739   2.22079921  -2.07360209
H    0.72376059   2.77665180  -1.47764186
H    0.63982790   1.49025662  -2.27139117
O   -1.80345525  -2.34745968  -1.59929541
H   -1.17424574  -2.87260679  -1.10477770
H   -2.42046124  -2.02889811  -0.94046768
O   -0.13388844   3.44223664   0.02525606
H    0.54353990   3.12650012   0.62328043
H   -0.23282903   4.36916971   0.24259842
O   -1.55785451   1.09503295   0.38509680
H   -1.27229700   2.00157523   0.27165143
H   -0.92053273   0.71668212   0.99082234
O    1.75811124   2.28699548   1.55342658
H    1.34479984   1.50787622   1.92541947
H    2.40132188   1.94433361   0.93286653
O    1.57551015  -1.06834289  -0.38817937
H    2.30115903  -0.44728118  -0.45101177
H    0.91413697  -0.72632669  -0.98971264
O    3.19004989   1.17463124  -0.55801842
H    2.57070765   1.57811730  -1.16616811
H    4.05183245   1.40009983  -0.90834197
O   -3.18985573  -1.12783840   0.48915663
H   -4.11657336  -0.93857508   0.63614532
H   -2.77141737  -0.26755265   0.45675897
O   -0.44548587  -0.00346676  -1.85042634
H   -0.93712736  -0.81146703  -1.99758626
H   -0.90771813   0.43160363  -1.13398587
O   -1.25819649  -2.27771656   2.13301812
H   -2.03854115  -1.98089082   1.66484236
H   -0.79249723  -2.82486037   1.50057073
O    0.36810081  -0.11341817   1.86390968
H    0.87267382  -0.48452537   1.14008831
H   -0.15857706  -0.84377793   2.18858935
O    0.18375044  -3.41342926   0.03488419
H    0.80602037  -2.70152768  -0.11413970
H    0.70811075  -4.21053317  -0.04194993
