36
Energy:   -480.67254976
O    3.00093539   1.18872797  -1.99077678
H    2.07975119   1.42978776  -2.08845845
H    3.25010648   1.53516331  -1.13396398
O   -0.08719759  -1.49628626   1.37098153
H   -1.01431424  -1.72803793   1.42555007
H   -0.01664906  -0.67337878   1.85479766
O    2.02802687   1.53762796   0.76729327
H    1.40409803   1.52463263   0.04150007
H    2.34257350   0.63573159   0.82954444
O   -2.41345312   1.79873800  -0.89564155
H   -2.59365821   0.88948259  -1.13441461
H   -3.05647484   2.30829773  -1.38869712
O    0.27855101   1.34755933  -1.33996910
H    0.15775891   0.40140869  -1.42021923
H   -0.60677132   1.69389803  -1.22822952
O   -2.53279572   1.08356061   1.77451140
H   -2.51642040   1.47773278   0.90239215
H   -1.63956398   1.18856799   2.10214285
O    2.65435318  -1.09785966   0.88437280
H    1.82462298  -1.49800971   1.14448734
H    2.78765508  -1.38698700  -0.01832750
O   -2.72546527  -0.83776195  -1.36327483
H   -1.84652789  -1.14737243  -1.58200362
H   -2.90175552  -1.20746545  -0.49813154
O   -2.86113318  -1.54718732   1.31580989
H   -2.83087080  -0.61871265   1.54657127
H   -3.58715610  -1.89896835   1.83095324
O    0.01442558  -1.34758566  -1.36714698
H    0.90459633  -1.56926898  -1.64043141
H    0.01512011  -1.47762893  -0.41882208
O    0.11911089   0.97875977   2.58257535
H    0.80650807   1.30441643   2.00148612
H    0.44037154   1.16824239   3.46411932
O    2.73847079  -1.50161979  -1.85104657
H    3.35486203  -1.94660184  -2.43266901
H    2.91154557  -0.56985287  -1.98553591
