36
Energy:   -475.30791949
O   -0.93877340  -2.85382772   1.30263425
H   -1.43009737  -2.03515727   1.37054080
H   -0.10175546  -2.66736463   1.72791573
O    1.61576488  -2.09919648   2.08844717
H    1.90946303  -2.18884029   1.18183963
H    2.26807802  -2.57731968   2.60042141
O   -2.17700371   2.45596745   0.28721823
H   -1.38453110   2.81047846   0.69038190
H   -2.83698203   3.13726869   0.41562809
O   -2.01164621  -0.97119964  -1.69393683
H   -1.55267333  -0.21901542  -2.06782804
H   -1.38003634  -1.68846264  -1.74717788
O   -1.90715286  -0.23643771   0.89828019
H   -2.21130391   0.67088550   0.87617628
H   -2.03115635  -0.55298417   0.00348785
O    0.21416743   3.19225536   1.25832125
H    0.74926819   3.32183800   0.47530953
H    0.49101183   2.34213263   1.60019897
O    0.62514250   0.44827496   1.68607231
H   -0.27329102   0.19178794   1.47807359
H    1.03020642  -0.34995837   2.02515729
O    2.17736669  -2.19614429  -0.54385147
H    2.11301992  -1.27370658  -0.79123784
H    1.40133017  -2.60272438  -0.92945723
O   -0.30805811  -3.11267661  -1.30716671
H   -0.58179571  -3.10554454  -0.38997060
H   -0.58828482  -3.96736162  -1.63460886
O    1.59756644   3.16540235  -1.15242167
H    2.42478836   3.57407989  -1.40721260
H    1.80885571   2.23702122  -1.05394740
O   -0.72166988   1.54807816  -1.91364533
H   -1.33123120   1.83345638  -1.23303816
H   -0.16259202   2.30922499  -2.06959176
O    1.57213943   0.47137349  -0.84139613
H    1.32227962   0.45973800   0.08254464
H    0.75273986   0.63138948  -1.30959596
