36
Energy:   -476.41543652
O   -3.20840616  -0.54559560  -0.33925710
H   -2.63798576  -0.46288581   0.42494935
H   -3.12864076   0.29486971  -0.79035286
O    2.19576026  -1.64766729   1.97832107
H    1.66635088  -2.03843692   1.28315444
H    2.73684294  -0.99702775   1.53096262
O   -2.39934659   1.78282881  -1.64039895
H   -2.81034638   2.63391284  -1.79194761
H   -1.65413232   1.97419159  -1.07095376
O    0.72993201   0.07744410   3.43417689
H    1.29437493  -0.57652557   3.02191520
H    0.82402655  -0.08209237   4.37328614
O    3.20689472   0.43433776   0.53739416
H    2.67631716   0.42302623  -0.25921827
H    2.84579081   1.15323910   1.05606233
O   -0.81217382  -0.02515452  -3.02525701
H   -1.19059895  -0.86751006  -2.77333755
H   -1.44851503   0.62345058  -2.72423685
O    0.47903532  -1.89979739  -0.25547294
H    0.95348961  -1.29228804  -0.82297393
H   -0.23671541  -2.22758399  -0.79998069
O    1.70855750   2.22165777   1.94339423
H    1.00269405   2.33520411   1.30692280
H    1.35817394   1.60079566   2.58213788
O   -0.17943545   1.88589953  -0.07140687
H   -0.50065539   1.16159322   0.46564988
H    0.46945727   1.48597077  -0.65039485
O   -1.78954192  -2.30398802  -1.79808709
H   -2.32351623  -3.04877717  -2.07447884
H   -2.38382025  -1.76212388  -1.27900292
O   -1.01431168  -0.26439882   1.33647008
H   -0.49274837  -0.91567485   0.86738257
H   -0.57324661  -0.16624344   2.18030594
O    1.49959095   0.32105778  -1.73015505
H    0.71262189   0.20670455  -2.26291662
H    2.19676167   0.48758837  -2.36454641
