36
Energy:   -476.49375101
O    1.17962130   1.46147636  -0.72879984
H    1.16713109   2.39639407  -0.93375038
H    0.78791643   1.04253910  -1.49514879
O    0.21974972  -0.30265454   2.81647011
H    0.00661976  -1.17886890   2.49544696
H    0.23395339  -0.39302985   3.76928824
O   -2.28169726  -0.05143837  -0.85496701
H   -1.93129098   0.48794973  -0.14608918
H   -1.66712794   0.07374270  -1.57806182
O   -0.17781425   0.05653784  -2.66545870
H   -0.15542541   0.10254826  -3.62129008
H    0.03250811  -0.85530023  -2.46409413
O    2.05474715  -2.74150714   0.15686438
H    2.25331842  -1.85073399   0.44552419
H    2.89057850  -3.20441802   0.21458194
O   -0.20954675  -2.73779595   1.75360018
H    0.59069757  -2.89082841   1.25118408
H   -0.91220194  -2.78198378   1.10509808
O   -1.23206516   4.14133517   0.73334856
H   -2.16867381   4.31098652   0.63228174
H   -1.17915638   3.21180600   0.95562775
O   -0.90685163   1.43396550   0.99825143
H   -0.61884416   0.88929912   1.73079635
H   -0.15594105   1.45492032   0.40501788
O   -2.02191995  -2.67623296  -0.33101438
H   -2.87145024  -3.09960076  -0.45466648
H   -2.19352639  -1.74618275  -0.47862763
O    2.39484430  -0.23936724   1.07802688
H    2.12096756   0.40601790   0.42633570
H    1.73990676  -0.17167428   1.77279759
O    0.83776733   4.14333963  -1.04343620
H    1.39344981   4.89919049  -0.85333539
H    0.09135700   4.23939843  -0.45193289
O    0.24375221  -2.49416062  -1.91771647
H    0.94685296  -2.62794256  -1.28211945
H   -0.55713279  -2.70417610  -1.43739515
