36
Energy:   -476.64605127
O   -2.60772364   0.96694278   2.31660988
H   -1.98583652   0.29547527   2.59700183
H   -3.05865898   1.22686653   3.11993348
O    1.22507129   2.19281814  -1.55380537
H    0.56973899   2.41077174  -0.89103267
H    2.01744973   1.99874888  -1.05310050
O   -3.35813378  -0.73569085   0.24680285
H   -3.29329188  -0.12872172   0.98410594
H   -3.07635308  -0.22352738  -0.51116817
O   -0.73130895   1.95845898   0.49464959
H   -0.05264372   1.35586989   0.79883990
H   -1.44054617   1.86169643   1.13014264
O    0.86579295  -1.65237966  -0.74522443
H    0.55930303  -1.16168256  -1.50779385
H    0.07528848  -2.05417412  -0.38481392
O    3.58738090  -1.25512697  -0.96425500
H    2.66964968  -1.52456947  -0.92681165
H    4.07266138  -2.07178161  -1.08177058
O   -2.13848070   0.83862827  -1.59821457
H   -1.69646395   1.34060735  -0.91347372
H   -1.42950864   0.51406621  -2.15341719
O    0.20440878   0.03857465  -2.80979535
H    0.60831091   0.82683240  -2.44682892
H    0.35297764   0.10535607  -3.75303412
O   -1.39609170  -2.53024961   0.58393491
H   -1.80257196  -3.39634074   0.61379784
H   -2.12166855  -1.93045790   0.41067215
O    1.18904425   0.18398482   1.24591295
H    2.01094885   0.62235440   1.02560227
H    1.08892572  -0.49012532   0.57376442
O    3.37659705   1.29475731  -0.03129820
H    3.56664641   0.43230033  -0.40046083
H    4.23712119   1.68149204   0.13046181
O   -0.79229147  -0.96649536   2.80799027
H    0.01931091  -0.56989239   2.49138403
H   -1.00066778  -1.63789280   2.15834680
