36
Energy:   -474.70429803
O    0.83016986  -2.61740272   2.14313850
H    0.93739362  -2.23455740   1.27241215
H    1.00957606  -3.54944162   2.01924840
O    1.66148532   2.22022926  -1.33371678
H    2.17237562   3.02771965  -1.27730570
H    1.56045587   1.93620153  -0.42522729
O   -1.70934250  -1.19274350  -0.88794430
H   -2.18582766  -0.38440185  -0.69879485
H   -1.51267464  -1.14211430  -1.82335345
O   -1.69288606  -1.45139908   1.95712173
H   -0.89560171  -1.95052331   2.13444775
H   -1.87108003  -1.60541550   1.02935145
O   -0.96622647   2.03625789  -2.21016585
H   -0.05810214   2.19017943  -1.94968515
H   -0.93522950   1.22850420  -2.72281098
O    2.22247157  -0.43992627   3.13056588
H    1.77714594  -1.26112848   2.92189426
H    2.60594484  -0.58781337   3.99503653
O    1.85543390  -0.27959256  -2.55332377
H    1.68817224  -0.76352611  -1.74458172
H    1.95128849   0.63057972  -2.27291305
O   -1.38913921   1.22910310   2.07037032
H   -1.53490925   0.28424703   2.11759265
H   -1.84726583   1.58104809   2.83357839
O   -2.76000068   1.22095076  -0.32293746
H   -2.21185542   1.66075004  -0.97281839
H   -2.32463065   1.39049737   0.51248981
O   -0.69205131  -0.47383442  -3.39229056
H   -0.74370093  -0.67019235  -4.32770903
H    0.24597582  -0.45370943  -3.20273335
O    1.19461692   1.14456262   1.15013372
H    0.31197479   1.29086736   1.49038311
H    1.66759052   0.73851826   1.87653292
O    0.90951531  -1.22869542  -0.15996033
H    1.03126086  -0.38444600   0.27438145
H   -0.00966013  -1.23082321  -0.42706301
