36
Energy:   -489.69480933
O    0.20690348  -1.72844039  -0.74396276
H    0.54828470  -2.32106565  -0.07427178
H   -0.56260745  -1.32745012  -0.33986924
O    1.18170131  -2.91029097   1.56635246
H    1.76216638  -2.17382449   1.75847034
H    1.67473660  -3.68285752   1.84255706
O   -0.99129792  -1.58542444   2.70230125
H   -0.30192236  -2.18038954   2.40732715
H   -0.52129717  -0.83487004   3.06561825
O   -0.14523153   1.77405241   0.80013807
H    0.62185914   1.37831119   0.38638377
H   -0.53811641   2.31179728   0.11260351
O    1.84133897   0.43043072  -0.46421220
H    1.79289667   0.90795306  -1.29237741
H    1.35176348  -0.37652560  -0.62348931
O    1.05524585   1.62540512  -2.84293576
H    0.55120293   0.84424256  -3.07087794
H    1.47667882   1.88647662  -3.66175673
O   -0.47352950  -0.55946997  -3.19322424
H   -1.34518490  -0.26398883  -2.93028010
H   -0.21109603  -1.17323277  -2.50718069
O    2.56737867  -0.64704967   2.01620053
H    1.97011861  -0.13217801   2.55880483
H    2.57498722  -0.19515552   1.17241996
O   -2.75559491   0.49172227  -2.00175738
H   -2.59423785   0.14362027  -1.12481910
H   -3.69978250   0.39721318  -2.12749397
O   -1.14704800   2.73089937  -1.54023888
H   -1.80518539   2.08347087  -1.79306957
H   -0.37760897   2.50818195  -2.06425450
O   -1.81773969  -0.34080310   0.43406488
H   -1.31047630   0.45441659   0.59698004
H   -1.75447800  -0.83719628   1.25004504
O    0.48784400   0.72217255   3.25607016
H    0.46320312   1.34457543   3.98287091
H    0.21868029   1.23352195   2.49298135
