36
Energy:   -475.31521619
O   -2.57426056   1.28495049   1.65485135
H   -1.96808446   0.91549593   2.29694613
H   -3.14865350   1.85424215   2.16691737
O    1.19938663   2.53101442  -2.10455236
H    0.56582424   2.51477366  -1.38721925
H    1.94386257   2.02523769  -1.77870374
O   -2.65738810  -1.13236113   0.25113036
H   -2.81368829  -0.27198956   0.64044111
H   -2.17838857  -0.94686140  -0.55657079
O   -0.41635720   1.72861224   0.01299395
H    0.24233609   1.30902837   0.56644166
H   -1.20833705   1.74167836   0.55042212
O    1.31441538  -2.37281110   1.12380859
H    0.41928492  -2.50063360   1.43787023
H    1.81514357  -3.07907723   1.53208705
O    1.59454698  -1.41828233  -1.46519494
H    1.49492008  -1.90130851  -0.64483402
H    0.71075658  -1.11617297  -1.67466167
O   -0.90020991  -0.30321162  -1.72542893
H   -0.73817232   0.43536918  -1.13850979
H   -0.82911316   0.06875245  -2.60453064
O   -0.25903903   1.16409206  -3.94966124
H    0.30586798   1.69312718  -3.38642616
H   -0.38285286   1.69775270  -4.73458691
O   -1.22908794  -2.43073680   2.11229943
H   -1.80301498  -3.08515229   2.51052043
H   -1.75844464  -2.03774198   1.41834813
O    1.51627125   0.36285365   1.41516949
H    2.17507534   0.65294379   0.78425212
H    1.51196888  -0.59107101   1.33616897
O    3.01146852   0.80002841  -0.90778691
H    2.56318329   0.00326342  -1.19140243
H    3.91001335   0.69399802  -1.22020745
O   -0.69132600   0.08915918   3.16470400
H    0.16209491   0.28436336   2.77766405
H   -0.84999366  -0.82894967   2.94531265
