36
Energy:   -484.13455638
O   -2.40593698   1.30456596   2.02470741
H   -1.74840166   0.83573874   2.53859474
H   -2.91647146   1.78935545   2.67321767
O    1.12250711   2.43544633  -2.04823509
H    0.48407044   2.34961528  -1.34023545
H    0.91814804   3.27752925  -2.45488674
O   -3.05579296  -1.09036543   0.76105042
H   -3.01595280  -0.23283105   1.18446440
H   -2.68438539  -0.94579283  -0.10922944
O   -0.51135598   1.77978311   0.06605912
H    0.18668022   1.31896131   0.53148428
H   -1.22915169   1.82864884   0.69741742
O    0.47719846  -1.93568593  -0.02901177
H   -0.19565727  -1.50304862  -0.55467513
H   -0.00725440  -2.35875901   0.67989333
O    2.33239837  -1.34347778  -2.05043715
H    2.75139884  -0.60492222  -1.60861577
H    1.81809585  -1.77201753  -1.36627456
O   -1.35376880  -0.40649701  -1.33941258
H   -1.14438560   0.41103241  -0.88770894
H   -0.91163718  -0.33338892  -2.18522975
O    0.39329738   0.07097378  -3.36714107
H    1.09818707  -0.51225991  -3.08571462
H    0.66982341   0.93973762  -3.07556847
O   -1.22182547  -2.57075624   2.06484515
H   -1.60484160  -3.38099744   2.40105892
H   -1.94556111  -2.12973073   1.61994621
O    1.43863626   0.27421331   1.20223319
H    2.19307068   0.55563622   0.68467962
H    1.17969365  -0.56159244   0.81414901
O    3.16410951   1.02485106  -0.83645102
H    2.55557754   1.58904525  -1.31353130
H    4.02820264   1.39199725  -1.02294121
O   -0.47144154  -0.14829540   3.20628091
H    0.34026794   0.03886253   2.73476051
H   -0.67731779  -1.05507470   2.97912874
