36
Energy:   -475.24292203
O    1.10171866   2.92270028   0.68741940
H    1.71711044   2.39378914   1.19513764
H    0.30797924   2.94653650   1.22187371
O   -1.82175839   0.91254953  -0.05039939
H   -2.48452998   0.72418019  -0.71484101
H   -1.01355747   1.04039766  -0.54708639
O   -3.33913308   0.21582793  -2.20348394
H   -3.82877296   0.53832581  -2.96010786
H   -2.52528886  -0.12705899  -2.57269661
O    0.10863047   0.25480247   3.12488172
H   -0.43647401   1.01581963   2.92501715
H   -0.24309610  -0.44387767   2.57318765
O   -0.48127666  -2.89083064  -1.37558271
H   -0.86974678  -3.72921227  -1.62546082
H    0.46296367  -3.03838849  -1.42914326
O    0.60972567   1.07883605  -1.27797765
H    0.82666704   1.87888674  -0.79934712
H    1.15287344   0.40240536  -0.87342373
O    2.50285132   1.01280273   2.16385166
H    3.14927989   1.09682772   2.86478087
H    1.70040834   0.74022751   2.60884588
O    1.90692481  -0.81636000   0.19052398
H    1.04951449  -1.05069461   0.54572349
H    2.28980166  -0.23761453   0.84983486
O   -1.25602131   2.45049699   2.11028832
H   -1.59945190   1.97229965   1.35556017
H   -1.98146404   3.00807916   2.39147654
O   -0.66639828  -1.35343502   0.92937955
H   -1.19680723  -0.62431705   0.60799942
H   -0.73685738  -2.02066779   0.24668797
O    2.22333957  -3.03696946  -1.38294469
H    2.29425764  -2.28347566  -0.79689899
H    2.95365082  -2.93578873  -1.99338697
O   -0.88128434  -0.63533503  -2.94814095
H   -0.27488497  -0.00151625  -2.56501512
H   -0.72488973  -1.44309274  -2.45895789
