36
Energy:   -475.35576747
O    3.17673789  -0.18881896   0.93178233
H    2.61457278  -0.46978138   1.65376734
H    2.81255805  -0.62375827   0.16078772
O   -2.34414911  -2.80829569  -2.58626005
H   -2.65179704  -1.94497481  -2.86241517
H   -3.13901028  -3.33810979  -2.52523065
O   -1.04799169  -1.31220743   1.94325615
H   -1.46913150  -0.45524005   1.87632312
H   -0.96016606  -1.60787782   1.03711183
O   -1.83861148   1.32545767   1.56197925
H   -0.99534953   1.62399536   1.90259102
H   -2.48736399   1.83722835   2.04513844
O   -1.54245828   0.88463678  -1.14017960
H   -1.70733237   1.14352645  -0.23352392
H   -0.67192439   1.23201133  -1.33443080
O    1.05826821   1.49765109  -1.57663405
H    1.54390181   1.94252318  -0.88202576
H    1.44658009   0.62378743  -1.61915513
O   -0.68126265  -1.66446806  -0.75892361
H   -1.00184106  -0.77314460  -0.89677796
H   -1.20976339  -2.20332388  -1.34761133
O   -3.10161036  -0.23671748  -3.11047533
H   -3.11383637   0.36209935  -3.85713508
H   -2.63270486   0.24173619  -2.42677834
O    0.59335242   1.93634736   2.53467117
H    0.91787240   1.08119454   2.81686308
H    1.23755655   2.23809723   1.89421829
O    1.91305684  -1.13694043  -1.34196906
H    1.02438513  -1.42694343  -1.13607421
H    2.20946990  -1.73822731  -2.02521516
O    2.51012296   2.39078351   0.60000558
H    3.29030672   2.94502286   0.61908159
H    2.84359618   1.50253502   0.72666290
O    1.36401448  -0.69335793   2.95963678
H    0.52310183  -0.99610028   2.61693453
H    1.48437634  -1.18710821   3.77078136
