15
Energy:   -142.12611979
O   -0.93721293  -0.92679249   1.13513529
H   -0.57578075  -0.29173147   1.75343628
H   -0.20743189  -1.13637753   0.55227545
O   -2.07383534   0.68841104  -0.77380040
H   -1.78331642   0.12934688  -0.05319102
H   -3.02929457   0.63728895  -0.74704152
O    1.48216380  -0.92416310  -0.31180567
H    1.93669187  -1.61133790  -0.79907036
H    1.08347403  -0.37494545  -0.98681551
O    0.22081328   0.53200067  -2.27046358
H    0.27182706   1.20627414  -2.94794770
H   -0.62860436   0.67501985  -1.85301055
O    1.11125770   0.65486633   2.42487653
H    1.53676973   0.33029023   1.63126345
H    1.69995104   0.39856829   3.13479435
