15
Energy:   -142.04604070
O   -1.46248670   2.33329479   0.32564162
H   -1.29872252   3.07000881  -0.26314154
H   -1.64159606   1.59545867  -0.25723876
O    1.61787388  -1.06401646   1.48427030
H    2.49044506  -1.00367674   1.87312827
H    1.48942135  -0.22029139   1.05084234
O   -0.31690594  -2.29170216  -0.04892070
H   -1.00218735  -2.55281899   0.56625346
H    0.39589854  -1.97521613   0.50603715
O   -0.84694929  -0.12085383  -1.59392440
H   -0.65326376  -0.35238179  -2.50228147
H   -0.72526014  -0.93609180  -1.10729246
O    1.02730562   1.14032022   0.03792604
H    0.53393174   0.66026520  -0.62717638
H    0.38220909   1.71931654   0.44393785
