15
Energy:   -145.68359681
O    0.28868528   0.36315472  -2.33102653
H   -0.66290390   0.25985642  -2.32475341
H    0.61183929  -0.35707036  -1.78965868
O    1.06841787   1.56591020   0.05849308
H    0.85572385   1.51127966  -0.87317671
H    0.21835077   1.60303548   0.49694432
O   -1.11094392  -1.52064897   1.03366763
H   -0.23486938  -1.49560224   0.64883272
H   -1.27227441  -2.44885254   1.20290842
O   -1.42466019   1.19797933   1.14536640
H   -1.91249457   1.44290298   1.93166270
H   -1.42910307   0.24079515   1.14861441
O    1.32938356  -1.10089001  -0.15306705
H    1.34599027  -0.16594144   0.05145004
H    2.24646740  -1.37194531  -0.11161689
