15
Energy:   -141.76511118
O   -1.07844269  -0.69196020  -1.93495703
H   -1.82163206  -0.59715512  -2.53070312
H   -1.35090934  -0.23840298  -1.13728565
O    1.22672757   1.11478192   0.40405610
H    1.80300467   1.85270550   0.20504516
H    1.45474979   0.45011855  -0.24591338
O   -0.44636846  -0.55053165   2.71862423
H   -0.73637804  -0.01324346   3.45581327
H    0.29644443  -0.07204838   2.35050112
O   -1.48580049   0.68676936   0.35522656
H   -0.58456211   1.00753293   0.32188039
H   -1.49647900   0.07734653   1.09327915
O    1.64532752  -0.66997586  -1.60039065
H    1.93269125  -1.58299100  -1.59282176
H    0.71728734  -0.71237898  -1.83098821
