15
Energy:   -142.78688663
O   -0.05894110  -0.72656313  -1.57801223
H    0.32281777  -0.76139612  -2.45509756
H    0.66108539  -0.96304272  -0.99331479
O   -2.68355473  -0.67645082   0.08089342
H   -3.36248232  -0.30893893  -0.48499013
H   -1.97368348  -0.91069477  -0.51697315
O    1.42452464   1.11677562   1.57145936
H    0.67489320   1.40236922   1.04923255
H    1.76145016   1.92055013   1.96726181
O    1.97478321  -1.15795964   0.15096884
H    1.87585187  -0.40255873   0.73046337
H    2.06804941  -1.90415567   0.74318902
O   -0.72954880   1.46537902  -0.02383924
H   -1.49171561   1.02735939   0.35493829
H   -0.42381087   0.86776099  -0.70619461
