15
Energy:   -142.06452222
O    1.93856940  -0.62163131  -1.27212791
H    1.29674794  -0.08131683  -1.73295034
H    1.41249780  -1.20729796  -0.72763264
O   -0.72061270   0.00818665   2.20900193
H   -0.33870725   0.71814023   1.69291473
H   -0.73472047   0.34378169   3.10533267
O   -0.50565247  -1.62042577   0.02495860
H   -0.60498255  -1.14162333   0.84782773
H   -1.05369886  -2.39786855   0.13200874
O    0.47814888   1.83003492   0.55569391
H    0.07501891   1.51244899  -0.25230191
H    1.40319166   1.59980632   0.46896160
O   -0.66837406   0.56287284  -1.64981234
H   -1.49085765   0.68705649  -2.12344829
H   -0.77165576  -0.27900851  -1.20619028
