15
Energy:   -142.38397368
O    1.34882804  -0.26666494   1.09066944
H    2.29740260  -0.15821953   1.15906345
H    1.23015632  -0.90111482   0.38382984
O   -0.90466262  -0.22666833  -2.17764746
H   -1.10017135   0.24391745  -2.98792964
H   -0.73001624   0.46208382  -1.53628098
O   -1.29307445   1.02748329   2.29937650
H   -1.20086540   1.13264392   3.24630342
H   -0.53628953   0.50114593   2.04154435
O    0.84251280  -1.99018512  -1.04041639
H    0.52167906  -2.88010173  -1.18651907
H    0.21783573  -1.43101376  -1.50230143
O   -0.21112734   1.57989904  -0.28457195
H   -0.83972168   1.76895352   0.41210546
H    0.47629528   1.07020397   0.14425543
