15
Energy:   -141.74390319
O   -0.19190323   2.03883918  -0.31400083
H   -0.91230189   2.04824065  -0.94421447
H    0.45254659   1.44242828  -0.69506554
O   -1.38059615  -0.84509133  -1.65260915
H   -1.26433030  -1.30004557  -0.81850439
H   -0.49424167  -0.59916040  -1.91742145
O    1.38935644  -0.12151786  -1.19051023
H    1.06228618  -0.71741962  -0.51659779
H    2.29324207  -0.39955843  -1.33855099
O   -0.18275798   0.71542805   2.07797477
H   -0.21336124   1.26723774   1.29643695
H   -0.67645011   1.20428581   2.73639562
O    0.09767878  -1.62729725   0.76030554
H    0.19833047  -2.34402952   1.38672069
H   -0.03103220  -0.84990656   1.30374740
