15
Energy:   -148.55068276
O   -1.76964261   0.16343004  -0.32303304
H   -1.11715819   0.04793047  -1.01379768
H   -2.60622043  -0.02176722  -0.74973126
O    0.09590356  -0.77527753   1.66707880
H   -0.67295001  -0.88452874   1.10747160
H    0.07633078   0.14644568   1.92451828
O    1.99645341  -1.08747793  -0.23084961
H    2.65594174  -1.70794137   0.07952452
H    1.39458928  -0.98798230   0.50677633
O   -0.58913233   1.91553923   1.49916081
H   -0.17516725   2.61433025   0.99264737
H   -1.10398105   1.42652917   0.85726377
O    0.23250165  -0.22419913  -2.11893319
H    0.69197745  -0.07708229  -2.94565592
H    0.90907439  -0.54358787  -1.52188042
