15
Energy:   -143.42568161
O    2.14301151   0.01939476  -0.02918587
H    1.63417270   0.45290049  -0.71430461
H    2.61990232  -0.67327706  -0.48636502
O   -1.57323920   0.76077694  -0.24064751
H   -1.03499411   0.73273013   0.55038817
H   -1.79119569  -0.15478674  -0.41520397
O   -1.44133139  -2.02774204   0.10545026
H   -0.81543530  -1.66517590   0.73237268
H   -1.99297514  -2.61078906   0.62696457
O    0.18336604   0.12178312   1.82023824
H    0.92515233   0.02697087   1.22274716
H    0.52559396   0.64231738   2.54698165
O    0.53630782   1.19824750  -1.86542674
H   -0.28426214   1.12489497  -1.37807043
H    0.44886493   2.01218687  -2.36149962
