15
Energy:   -141.97514755
O    1.16939097  -1.21166274  -1.45344219
H    0.75908520  -1.57018271  -0.66645779
H    1.99434147  -1.69051360  -1.53338201
O    0.42855880   2.09365520   1.43863779
H    1.23707680   1.94067758   1.92764529
H    0.66838942   1.94108307   0.52461653
O   -1.55993917   0.27422583   0.81428684
H   -1.35800762   0.50508895  -0.09244229
H   -1.09054032   0.92388787   1.33758006
O   -0.06235499  -1.97131392   0.86193440
H   -0.62442627  -1.19937305   0.92838003
H   -0.54319180  -2.65868951   1.32295784
O   -0.30808001   1.06840981  -1.52213053
H    0.24392735   0.29105108  -1.60717829
H   -0.77270569   1.12533106  -2.35706454
