15
Energy:   -142.17569358
O    1.37298100  -1.23026151   1.61014959
H    1.48367929  -0.52270800   0.97505450
H    1.99705175  -1.90113690   1.33321323
O    1.48922879   0.61327825  -0.44286840
H    0.73058745   0.29265344  -0.93061310
H    1.22472208   1.47796670  -0.12889080
O   -1.14744899  -1.81731752   0.59828496
H   -0.31287853  -1.63436114   1.02985297
H   -1.76196689  -1.96530820   1.31710230
O   -1.05653678   0.01078953  -1.43186444
H   -1.15183232  -0.48541447  -2.24484180
H   -1.18771303  -0.63639432  -0.73891589
O   -0.45756756   2.62379651  -0.01355113
H   -0.86339731   1.82834930  -0.35822169
H   -0.46847967   3.23670027  -0.74871216
