15
Energy:   -142.17153454
O    1.26182759  -0.63505812   1.79091631
H    1.46558455  -0.42997022   2.70341502
H    0.35518975  -0.34979028   1.67750578
O   -2.14515533  -1.29922077  -0.78649340
H   -2.23583639  -2.07149697  -1.34470328
H   -1.71390269  -0.65041422  -1.34264361
O   -1.24464637   0.38557198   1.23026198
H   -1.70538178  -0.37097049   0.86749729
H   -0.89965540   0.84594506   0.46523276
O   -0.34970120   1.20711169  -1.33528256
H   -0.29932523   2.08382805  -1.71615332
H    0.56300762   0.94367119  -1.21783655
O    2.19555498   0.39177913  -0.58841273
H    1.93220880   0.03070554   0.25805434
H    2.97428611  -0.10909508  -0.83117745
