15
Energy:   -142.69683276
O   -1.27217201  -1.24822177  -0.28657203
H   -1.53932778  -2.09062667   0.08114205
H   -1.35972525  -0.63078402   0.43960763
O    0.06873779   0.13288702  -2.82147574
H   -0.23688366   0.12424078  -3.72853286
H   -0.59340636  -0.36345261  -2.34038952
O   -1.31924984   0.45061109   1.84956084
H   -0.42056469   0.77065700   1.92809405
H   -1.85796277   1.15914370   2.20169970
O    1.32088850   1.20003345   1.71519159
H    1.46194403   0.64965627   0.94485391
H    2.20200630   1.41152581   2.02363000
O    1.43524212  -0.48458318  -0.42411320
H    0.60428597  -0.93496902  -0.27279789
H    1.37871150  -0.17381769  -1.32769549
