15
Energy:   -142.47245919
O    1.57449142   1.16420097  -0.00654511
H    0.67702955   1.36383135   0.25980385
H    1.49316052   0.84871677  -0.90659336
O    1.05675150  -1.54862369   0.23349204
H    0.86353067  -1.57451278  -0.70364579
H    1.44469533  -0.68504326   0.37477287
O   -1.15191855   1.36158399   0.41254124
H   -1.24663977   0.52932129   0.87578905
H   -1.27479254   2.02791709   1.08865811
O    0.13882696   0.00506722  -2.10732132
H   -0.52276167   0.36796170  -1.51839014
H   -0.05450042   0.39966494  -2.95770301
O   -1.20328004  -1.04118074   1.64311613
H   -0.39455249  -1.35495879   1.23847439
H   -1.62658567  -1.83175454   1.97783579
