15
Energy:   -152.10898964
O   -1.26135389   1.86691525  -0.46233416
H   -1.31649224   2.62482739  -1.04436577
H   -1.12125090   1.12357606  -1.04889179
O   -0.78743002  -0.22506989  -2.13256860
H   -0.02922260  -0.69542987  -1.78599273
H   -1.36259146  -0.91204830  -2.46943925
O    1.06812026  -1.23427589   1.63851660
H    0.63180019  -0.39273802   1.77144762
H    0.68642283  -1.80984186   2.30128559
O   -0.29001137   1.10303252   1.96996518
H   -0.30142879   1.89960466   2.50060094
H   -0.66014641   1.36987390   1.12852143
O    1.29018944  -1.59863687  -1.04441211
H    1.21048317  -1.50691283  -0.09495676
H    2.23225573  -1.56480381  -1.21053943
