15
Energy:   -141.82075382
O    0.76201081   0.34361266   1.85583400
H    0.57479338  -0.49867673   1.44143073
H   -0.07778805   0.62402351   2.21961892
O   -0.28780556   0.11667828  -1.69656096
H   -0.11607250   0.14866651  -2.63768601
H    0.32031335   0.75271395  -1.31988888
O    0.05221420  -1.82886949   0.26016959
H   -0.01183873  -1.28685978  -0.52618563
H    0.27849440  -2.69972497  -0.06638801
O    1.47469289   1.75028962  -0.39067173
H    1.31891587   1.31886689   0.44947099
H    2.05935788   2.47877406  -0.18160445
O   -2.37944518  -0.32574649   0.31795655
H   -1.78677386  -1.05360202   0.50557020
H   -1.97447598   0.12929389  -0.42039977
