15
Energy:   -141.93665076
O    0.42147589   1.92580711  -1.37829452
H    1.18222608   1.41977922  -1.09294076
H    0.58421032   2.80987895  -1.04940801
O    0.35414973  -1.45353528   0.29731410
H   -0.31710460  -0.97583696  -0.18997820
H    0.06540791  -1.41025825   1.20889904
O   -1.58004212   0.19572364  -0.69935683
H   -0.93456478   0.85458337  -0.95527618
H   -2.09434298   0.04300756  -1.49207637
O    2.35825369   0.23161362  -0.43159838
H    1.73051297  -0.42376577  -0.12721163
H    3.13859056  -0.27245377  -0.66229794
O   -1.37461905  -0.94384335   2.40985051
H   -1.96006757  -1.68896229   2.27464830
H   -1.67195016  -0.28758318   1.77965321
