15
Energy:   -142.57718178
O   -0.95957279   0.86981403  -2.58382154
H   -1.31052334   0.64443079  -1.72227179
H   -1.46877971   1.63241373  -2.85837912
O    1.16329457   0.71962653  -0.83745699
H    0.78204306   0.80840186  -1.71095461
H    0.44024156   0.90935488  -0.23960304
O    1.76180433  -1.54958926   0.58404443
H    1.66351348  -0.82848955  -0.03771594
H    2.70493665  -1.70926267   0.61922523
O   -0.44644027  -1.05363043   2.14344052
H    0.35513794  -1.29498739   1.67927348
H   -0.82644408  -1.88871186   2.41632870
O   -1.29323648   0.94218957   0.49644971
H   -1.60059297   1.63110801   1.08564851
H   -1.08870955   0.20642407   1.07355432
