15
Energy:   -142.27787780
O   -0.01493601  -0.50850928  -1.69254357
H    0.09890539  -1.17890518  -1.01886611
H    0.42397351  -0.86666394  -2.46411049
O    1.27060140  -0.18187813   2.05823111
H    1.04137169   0.53609495   1.46814616
H    2.00174122   0.15644650   2.57514780
O   -2.28167724   1.39949912  -0.60032137
H   -2.77398115   1.97443838  -1.18625101
H   -1.79233416   0.82193486  -1.18614960
O    0.49434532  -2.24477740   0.36457856
H    0.83623424  -1.58375954   0.96657458
H   -0.06239046  -2.80077739   0.90968509
O    0.54914486   1.59009502   0.11665749
H    0.55594064   0.95979984  -0.60369912
H   -0.35648350   1.89724043   0.15826055
