15
Energy:   -151.11623585
O   -1.58696701  -0.12208575  -0.41675672
H   -2.43971321  -0.48231257  -0.66025705
H   -0.96540148  -0.82302165  -0.61316703
O    0.31804491   1.79521374  -1.07375570
H    0.35182711   1.90669901  -2.02384078
H   -0.44158194   1.23210829  -0.92505752
O    1.75734174   0.03688930   0.50340543
H    1.48239190   0.76324710  -0.05609326
H    1.15062977   0.06095492   1.24337386
O   -0.47313173   0.24721770   2.10878192
H   -0.66444216   1.14558014   2.37818327
H   -0.98672285   0.12141287   1.31089148
O    0.42360549  -1.88774666  -0.83610106
H    1.01900295  -1.28165268  -0.39521128
H    0.81545378  -2.75044865  -0.70033641
