15
Energy:   -142.04915736
O   -1.51033295  -0.17736746   1.69014500
H   -2.32763913  -0.63973436   1.87577713
H   -0.84767981  -0.86707167   1.65231940
O    1.49200402  -0.04971348  -0.36924417
H    1.42234816  -0.09926028  -1.32261976
H    0.88094455   0.64350623  -0.11967536
O   -0.56663456   1.73492334   0.00722332
H   -0.46558245   2.56668426   0.47003440
H   -0.97715369   1.15282550   0.64665120
O    0.37868771   0.49767869  -2.84089165
H    0.03949274   1.16708144  -2.24668749
H   -0.35022549  -0.11177862  -2.95699155
O    0.50979563  -2.00902014   1.27775359
H    1.26185038  -2.42359914   1.70056532
H    0.89438443  -1.38324361   0.66397265
