15
Energy:   -145.67704046
O   -0.21587561  -0.31539239  -1.65667453
H    0.06506155   0.56778381  -1.41728789
H    0.37286799  -0.89409174  -1.17219556
O   -0.32635118   0.22835420   1.69653302
H   -1.16671248   0.02058081   1.28805419
H   -0.03218519   1.02222359   1.24991282
O    1.49102085  -1.30669687   0.34885002
H    1.75924429  -2.08257966   0.84108362
H    0.86786370  -0.86168072   0.92319107
O   -2.38718039  -0.42007158  -0.03772478
H   -1.66598152  -0.40413164  -0.66689086
H   -3.07824618  -0.91546873  -0.47731731
O    1.11213147   1.76728662  -0.26935665
H    1.61288040   2.53929539  -0.53295640
H    1.76961747   1.07999169  -0.16179415
