15
Energy:   -142.62355839
O    0.45222194   1.20256715   1.06497370
H    0.35560469   0.56484870   1.77223046
H   -0.32148312   1.07198671   0.51673919
O    0.01750461  -0.80041491  -2.22962165
H    0.30310444  -1.67403030  -2.49694307
H    0.80077335  -0.39533428  -1.85728898
O   -0.58916153  -0.94058076   2.52303363
H   -1.20548008  -1.09242163   3.23950249
H   -1.14229752  -0.72351350   1.77259760
O   -1.67186102   0.17155821  -0.35464283
H   -1.13649363  -0.24266047  -1.03142677
H   -2.36285144   0.62380791  -0.83862042
O    2.04918246   0.42431157  -0.93324892
H    2.72319021   1.09396750  -1.04946569
H    1.58722482   0.68454166  -0.13631274
