15
Energy:   -141.90975228
O    0.19017551   1.55074179   0.75552499
H   -0.54097584   1.83526759   0.20716870
H   -0.08100328   0.69707045   1.09307373
O   -0.81681318  -1.01422505   1.20396721
H   -0.67564675  -1.47991729   2.02824546
H   -0.24301872  -1.45553989   0.57768214
O    2.03888579   0.41560941  -0.91368743
H    1.43807451   0.90500904  -0.35177493
H    2.88899590   0.83410962  -0.77803260
O    0.94857778  -2.07130695  -0.54773328
H    1.39318128  -1.24223268  -0.72435558
H    0.82775842  -2.46743413  -1.41070361
O   -2.26955393   1.34340708  -0.61022965
H   -1.99354421   0.53016652  -0.18751192
H   -3.15493338   1.49683318  -0.28038800
