15
Energy:   -141.82373468
O    0.64964467   0.63170881  -1.42907877
H   -0.18009539   0.83397375  -0.99681477
H    0.50826932  -0.22556047  -1.83074310
O   -0.74177999  -1.80172607  -1.98639976
H   -1.32424211  -1.23476495  -1.48090513
H   -0.84269842  -2.66606109  -1.58768645
O   -0.23067084   0.20029539   2.24286491
H   -0.08428747  -0.39371377   2.97904210
H    0.63484840   0.31349295   1.85006139
O    2.18213654   0.39349810   0.79869117
H    1.67496084   0.44244077  -0.01162314
H    2.96266896   0.91978961   0.62543345
O   -1.73618054   0.66359538  -0.00059635
H   -2.26369097   1.43053659   0.22248608
H   -1.27613038   0.44478472   0.80977863
