15
Energy:   -145.23455277
O    0.76624431   0.12162597  -2.30913176
H    1.26661546   0.31274485  -1.51582593
H    1.22404247   0.59749687  -3.00209611
O   -0.61270158  -1.66033700   1.47381766
H   -1.04211062  -2.05669913   2.23193163
H   -0.59047239  -0.72430732   1.67278033
O   -1.53319792  -0.26833220  -0.85554044
H   -1.30795608  -1.04434537  -0.34241129
H   -0.82631902  -0.19081675  -1.49627863
O    1.93359727   0.54787600   0.12760290
H    1.14789748   0.84369236   0.58738584
H    2.13214524  -0.30434744   0.51557940
O   -0.55893300   1.13437501   1.23137048
H   -0.99303037   1.96952220   1.40549832
H   -1.00309588   0.78999617   0.45654508
