15
Energy:   -141.75725466
O   -1.00151122   0.73290421  -1.19607941
H   -1.74665408   0.23672672  -0.85725517
H   -0.27038765   0.11563997  -1.17009797
O    2.02373719   0.03908180   1.39979965
H    1.50978106   0.82860715   1.23029843
H    1.87610906  -0.14898871   2.32665847
O   -2.38273555  -1.49200915  -0.18624835
H   -2.60462674  -2.09960123  -0.89181762
H   -1.46502845  -1.67882952   0.01159929
O    0.34589658   2.11372084   0.72973850
H    0.28765564   3.05846580   0.58727168
H   -0.19894096   1.73310392   0.04088826
O    0.85548806  -1.24355626  -0.71829889
H    1.31243140  -0.88442119   0.04226447
H    1.54567767  -1.39283080  -1.36450880
