15
Energy:   -142.65556431
O   -1.66061311   0.32312373  -1.51269181
H   -1.15625513   0.96041041  -1.00700360
H   -1.87834303  -0.36442461  -0.88332481
O    0.85066391  -1.70089558  -0.68342420
H    0.14469114  -1.59508728  -0.04574176
H    0.40698718  -1.72215968  -1.53132199
O   -0.29160166   1.61093035   0.62119463
H    0.61523619   1.36020274   0.44509060
H   -0.22454970   2.45152912   1.07410698
O   -1.19763299  -0.93237873   1.03462952
H   -1.58655460  -1.08322010   1.89615068
H   -0.95003500  -0.00778271   1.04164940
O    2.14626959   0.57737522   0.05095469
H    3.09293172   0.44036285   0.01503434
H    1.77230603  -0.25145086  -0.24809454
