15
Energy:   -142.48951351
O    1.58313056  -1.38024628  -0.70434540
H    2.46759732  -1.51171619  -1.04590953
H    1.71567795  -1.04358482   0.18183861
O   -1.49929645   2.18412726  -1.33146280
H   -1.19528229   2.58989840  -2.14334765
H   -1.26154069   1.26123357  -1.42074485
O   -0.91989452   0.46889555   1.45839551
H   -1.10948773   0.07413023   0.60725122
H   -1.05423826   1.40692125   1.32314982
O    1.60169637  -0.41004294   1.86448289
H    0.70857629  -0.06765504   1.82789182
H    1.61058336  -0.97522917   2.63695774
O   -0.97593273  -0.55412460  -1.10908449
H   -0.06928693  -0.85329306  -1.04035699
H   -1.48746732  -1.35783362  -1.20190704
