15
Energy:   -145.24640306
O   -0.67652623  -1.58568829  -0.41881647
H   -1.35380070  -0.91565685  -0.51149338
H   -0.45361199  -1.57445993   0.51199770
O    1.09532900   1.30465352   1.13402481
H    0.36105260   1.91857452   1.12094681
H    1.17710419   1.00896717   0.22731965
O   -1.72345223   0.93544705  -1.18445196
H   -2.20119732   1.05908610  -2.00463783
H   -0.80215463   0.91838216  -1.44358777
O    0.20758395  -1.07759006   2.12745993
H    0.68177615  -1.32829880   2.92025166
H    0.56903379  -0.22318703   1.89170301
O    0.97474551   0.25621777  -1.42152381
H    0.51940749  -0.52866985  -1.11680993
H    1.69150464  -0.07660707  -1.96163105
