15
Energy:   -142.29522115
O    2.08861225  -0.06142020  -1.88655546
H    1.20463841  -0.42315754  -1.94954913
H    2.63675374  -0.68230862  -2.36642036
O   -0.44803380   1.73500563   1.60060812
H   -0.16500062   1.99764280   2.47647671
H    0.25174010   1.16410720   1.28339633
O   -0.55511103  -1.63388266  -0.51375613
H   -0.94686267  -2.44331960  -0.18577086
H   -1.21558661  -0.96197300  -0.34481453
O    1.34753989  -0.15062553   0.76718390
H    0.71072030  -0.80668899   0.48385832
H    1.82465043   0.08057375  -0.02977549
O   -2.29880118   0.30423092   0.18219787
H   -1.74086542   0.83154249   0.75393386
H   -2.76767859   0.94471523  -0.35274670
