15
Energy:   -142.06093098
O    0.25190675   1.57138589  -0.34159663
H    0.59325373   1.04415215   0.38071817
H   -0.67195930   1.70180399  -0.12783394
O   -2.10321900   1.32448779   1.03760928
H   -2.21756454   2.02170055   1.68340438
H   -1.40705817   0.77527432   1.39810408
O    0.67527133  -0.28156389   1.61564849
H    0.54234853  -1.04026680   1.04737630
H    1.41049959  -0.52795328   2.17686459
O    0.71048642  -0.32318523  -2.21791434
H    0.52557339   0.38433985  -1.60030016
H    0.89983531   0.12241742  -3.04363652
O    0.41243876  -2.23858329  -0.27303223
H   -0.15630160  -2.92023964  -0.63095803
H    0.56349327  -1.64246059  -1.00655258
