15
Energy:   -142.33356718
O    1.17148719   0.88462149   0.44830620
H    0.91117952   0.41766899  -0.34568822
H    0.62766974   1.67232415   0.45265873
O   -1.09787904  -2.02999529   0.04182596
H   -1.89354032  -2.20912873   0.54289099
H   -0.43515521  -1.83661037   0.70487290
O    0.68041246  -1.28905235   1.93462430
H    0.89880644  -0.44508049   1.53934285
H    1.35491361  -1.42402330   2.60025399
O   -0.63081873   2.74370525  -0.51673051
H   -0.12944288   3.19890609  -1.19322612
H   -0.92518363   1.93644155  -0.93852011
O   -0.14190258  -0.18318928  -1.70756078
H   -0.58451623  -0.86315560  -1.19965250
H    0.20418140  -0.64228489  -2.47286395
