15
Energy:   -145.27513011
O   -1.06046975  -1.43097405  -0.31746481
H   -1.14313841  -0.69302363   0.28654422
H   -1.96279000  -1.68730224  -0.50811075
O   -0.79564904   0.58980749   1.45387910
H    0.04508954   0.17046241   1.63701891
H   -0.57392703   1.34304009   0.90641966
O   -0.01659965   2.36262812  -0.49172090
H    0.24672016   1.62429094  -1.04104114
H   -0.21027633   3.06584413  -1.11156639
O    0.66902415   0.11191481  -1.85252052
H    1.53055195  -0.16480110  -1.54038271
H    0.06035612  -0.51847292  -1.46733694
O    1.26716107  -1.32103570   1.28690556
H    1.34329294  -1.96759722   1.98861347
H    0.56599754  -1.65533830   0.72758157
