15
Energy:   -145.59864648
O   -1.27314934   1.26791656   1.28322239
H   -1.72741974   2.10946849   1.32397285
H   -1.29880379   1.02592910   0.35747093
O    1.04306325  -0.22829914   1.28275865
H    0.64487956  -0.98839400   0.85856838
H    0.30365045   0.33804737   1.50355768
O   -1.01751126   0.38248570  -1.26646623
H   -0.12904855   0.71573560  -1.39220552
H   -0.89718517  -0.53443924  -1.01948013
O    1.65364500   1.02854243  -1.04055596
H    1.56952518   0.60798868  -0.18481636
H    2.35375999   1.67088278  -0.92449678
O   -0.35437009  -2.13879456  -0.22600524
H    0.11064723  -2.75288575  -0.79423298
H   -1.00990182  -2.67447381   0.22071362
