15
Energy:   -144.60821205
O   -1.03060418   1.86357121  -0.42220289
H   -0.56000310   1.32893400  -1.06167886
H   -1.54287153   2.47508610  -0.95122420
O    0.28211938   0.11121148  -1.99368532
H   -0.29792695  -0.65018587  -1.98646127
H    0.93927568  -0.08137382  -1.32488912
O   -0.51376633  -2.10830532   0.06402870
H    0.43490863  -1.98332450   0.08907766
H   -0.85079512  -1.52422899   0.74336536
O   -0.52782370   0.27576503   1.69734273
H   -0.78202127   0.88487540   1.00408954
H   -1.08904776   0.50684386   2.43751972
O    1.80011789  -0.47425131   0.28572997
H    1.11571665  -0.14415297   0.86784841
H    2.61723760  -0.29916706   0.75251979
