15
Energy:   -142.23069656
O   -0.07615751   1.57461236   0.42940536
H    0.54200481   1.03845533  -0.06722613
H   -0.83202021   1.66857183  -0.15031445
O   -0.47594022  -0.31193583   2.32856632
H   -0.74958150   0.04958876   3.17156826
H   -0.40917436   0.44882288   1.75148717
O   -1.46853036   1.18451531  -2.06821129
H   -1.25411145   2.00221235  -2.51724128
H   -0.70255387   0.62720352  -2.20574464
O    0.66931373  -2.15792023   0.63450202
H    0.29609886  -1.59346022   1.31150084
H    0.26208456  -3.01146443   0.78234840
O    1.18496408  -0.24063772  -1.27386900
H    2.11793303  -0.33408859  -1.46639880
H    0.98650788  -0.97103240  -0.68789067
