15
Energy:   -144.11398357
O   -1.26635604   0.72268327  -1.40469401
H   -0.40732312   0.93611010  -1.76903353
H   -1.19581891  -0.19624474  -1.14618354
O    1.63307746   0.27581639  -1.10814811
H    2.47510494  -0.06192334  -1.41335859
H    1.11030335  -0.50645497  -0.93210663
O    0.21862132   1.72694604   0.86088509
H    0.95910164   1.42269050   0.33614771
H   -0.45096403   1.96090901   0.21811870
O   -0.24405118  -1.74511715  -0.41078916
H   -0.62751143  -2.61960178  -0.34395563
H   -0.33175165  -1.37678494   0.46834216
O   -0.50925977  -0.59385605   2.05188923
H   -0.98149055  -0.43647955   2.86948484
H   -0.28996109   0.28026952   1.72933003
