15
Energy:   -142.48207890
O    1.98186431   1.68431470   0.42626553
H    2.63801465   2.13445147   0.95831390
H    1.53354810   1.10226766   1.03983351
O    0.15957605  -0.68354019   1.64317756
H   -0.72624708  -0.54060117   1.30983439
H    0.04958204  -1.31556014   2.35358867
O   -2.25845425  -0.22888384   0.50512048
H   -3.10542230   0.21693361   0.49399544
H   -1.96723647  -0.21364502  -0.40657674
O    1.32812468  -0.67544068  -0.84744493
H    0.93468802  -0.91814572  -0.00927209
H    1.68738185   0.19937191  -0.69956301
O   -1.09059497  -0.17075629  -1.99030778
H   -1.03276282  -0.21177774  -2.94487812
H   -0.19787085  -0.33841277  -1.68836939
