15
Energy:   -143.47239316
O    0.54881131   1.05686760   1.31634510
H    0.22933331   0.17484128   1.50659550
H    0.89763072   1.37090364   2.15057423
O   -0.62149052  -1.47961997  -1.18586391
H   -0.84056011  -0.54918108  -1.23610177
H    0.27490677  -1.53334786  -1.51725047
O    1.78082512   0.46478223  -1.21551492
H    0.99360109   0.89406610  -1.55051573
H    1.73195738   0.58056017  -0.26660014
O   -0.37325574  -1.54285492   1.56185985
H   -0.95018091  -2.15759202   2.01516714
H   -0.51111372  -1.72521003   0.63235803
O   -0.99753076   1.29726434  -0.95022648
H   -1.73540953   1.90652243  -0.92632322
H   -0.61174334   1.35315473  -0.07599757
