15
Energy:   -142.37908924
O    0.51068971  -1.09008383   1.11735419
H   -0.34822312  -0.90419304   0.73795307
H    0.91879871  -1.69816817   0.50098390
O    0.68960395  -2.37596090  -1.34417483
H    0.13041246  -1.60077989  -1.39546940
H    0.12304716  -3.09883673  -1.61379639
O   -0.75401122   2.22849760  -0.26132834
H    0.06338359   2.06429843   0.20892288
H   -0.60476179   3.05489962  -0.72069330
O   -1.63209186  -0.36237401  -0.48647055
H   -1.33965648   0.54833419  -0.52285707
H   -2.56989479  -0.30615355  -0.30317632
O    1.47892369   1.45530030   1.05408616
H    1.23306205   0.53200321   1.11158729
H    1.94065956   1.63218863   1.87368505
