15
Energy:   -142.31322726
O    0.55684405  -0.29434374   2.03980281
H   -0.16452591  -0.79910990   1.66421213
H    0.59419575  -0.57337165   2.95466898
O    0.90109218   1.64791104   0.23866356
H    0.88548931   0.94789556   0.89132483
H    0.97811170   2.45247481   0.75147637
O   -1.28211152   0.46099461  -1.06481557
H   -0.65176306   0.01273524  -1.62869163
H   -0.75432462   1.07807662  -0.55797968
O   -1.50885417  -1.49728519   0.78683639
H   -1.51288567  -0.84111608   0.08994493
H   -2.00549095  -2.23232411   0.42725115
O    1.12028955  -0.41167992  -2.15649550
H    1.43781663   0.11421570  -1.42243678
H    1.52228580  -0.01352304  -2.92857189
