15
Energy:   -148.72527055
O   -0.12946045   1.61439704  -1.25614255
H    0.56308105   1.07981937  -1.64453002
H   -0.88359871   1.02743677  -1.20150752
O    1.42287854  -0.70250032  -1.27375383
H    1.61677793  -0.39039588  -0.38988411
H    0.51094443  -0.99035537  -1.23195066
O   -0.87549777  -0.81590098   1.83368014
H   -0.67560792  -1.23585836   2.67028739
H   -0.17657511  -0.17275015   1.71495373
O    1.07482747   0.96020920   1.07649654
H    1.60347710   1.68401965   1.41244275
H    0.61651318   1.32822229   0.32101906
O   -1.36226889  -0.93862909  -0.83950076
H   -2.07294970  -1.54210606  -1.05624987
H   -1.30379062  -0.96981174   0.11540227
