21
Energy:   -122.62517051
O   -1.92604814   0.66872756   0.40385776
H   -1.44157658   0.83210348  -0.40535634
H   -2.73631748   1.16835137   0.30350090
O   -0.49501370   1.26925476  -1.82444377
H    0.04432956   0.56394279  -2.18204093
H    0.13089772   1.86427438  -1.41162616
O    1.32430039  -0.67870544  -2.46192025
H    1.40473457  -1.05180070  -1.58410357
H    2.20658877  -0.37499828  -2.67537051
C    1.07736936   1.16117568   2.28047219
H    0.05718652   0.84738887   2.35573846
H    1.30856535   1.82018008   3.09112668
H    1.71789057   0.30512171   2.32293708
C    1.29104925   1.89639949   0.94428850
N    1.45014364   2.44380703  -0.05056099
C   -1.23740119  -2.50635402   0.94214241
H   -1.88316712  -2.50200147   0.08899084
H   -1.63079785  -1.85062551   1.69057963
H   -1.17324530  -3.49922161   1.33583909
C    0.16588211  -2.02738936   0.52622314
N    1.21069031  -1.67077840   0.21655234
