21
Energy:   -118.73472229
O    2.70858468   1.20007041  -0.06443846
H    2.02721462   1.44598385  -0.69013269
H    3.52634321   1.28415813  -0.55477721
O    1.59573766  -0.94350772   1.21070785
H    1.28537358  -0.58959517   2.04416565
H    2.05767654  -0.21411820   0.79738564
O   -0.65055484  -1.82345767  -0.00104871
H   -0.70210994  -2.74271244   0.26076149
H    0.16632855  -1.50904418   0.38634972
C   -1.16605610  -0.25676888  -2.79910957
H   -2.09770792  -0.11209187  -2.29315144
H   -0.79606441  -1.23900752  -2.59123338
H   -1.31180028  -0.14625051  -3.85335973
C   -0.14792087   0.78963178  -2.30916433
N    0.61012708   1.56872463  -1.94437784
C   -2.21626164   0.91841570   1.56037834
H   -2.27747051   1.98287962   1.47054393
H   -3.12920551   0.54218148   1.97254385
H   -2.05692742   0.48750151   0.59403230
C   -1.04353002   0.54807304   2.48728008
N   -0.17037801   0.27233610   3.17740056
