21
Energy:   -119.88656175
O   -0.59750329  -0.16244372   3.05092141
H   -0.96808590  -0.20908741   2.16960152
H   -1.35834287  -0.16686205   3.63172728
O   -1.46760268  -0.17368993   0.46594289
H   -0.94875538   0.60829626   0.27745701
H   -0.91225139  -0.90259659   0.18933509
O    0.33327880  -2.03423305  -0.44017307
H    0.40911224  -1.69815207  -1.33321882
H    0.25578637  -2.98236584  -0.54633801
C   -1.24440374   1.54518543  -2.85816684
H   -1.60511979   1.77527318  -3.83890316
H   -0.63232194   2.34889844  -2.50560427
H   -2.07371234   1.41120933  -2.19544763
C   -0.41259660   0.25010828  -2.90788655
N    0.20672163  -0.71413552  -2.94490514
C    2.47329149   0.31904352   1.44124715
H    3.42477914   0.80735648   1.40775259
H    2.56523336  -0.66908423   1.04118549
H    2.13647753   0.26335439   2.45532514
C    1.45629147   1.11855534   0.60572826
N    0.69908873   1.71382823  -0.01635353
