21
Energy:   -124.76858110
O   -0.22275457   1.18405007   0.96953031
H   -0.32103997   0.71661556   1.79903426
H    0.68834537   1.03513838   0.71663893
O    2.02683760   0.15309169  -0.27227014
H    2.72990251  -0.46537465  -0.07369785
H    1.29558550  -0.39696671  -0.55322913
O   -0.43209980  -0.97365168  -0.71864552
H   -0.60105349  -0.24502151  -0.12133105
H   -0.64895777  -0.62904565  -1.58493136
C    0.49828709   3.04318937  -1.89792476
H    1.51799486   2.83553381  -1.64897616
H   -0.03397713   3.32685419  -1.01411020
H    0.46026316   3.84186103  -2.60896404
C   -0.14854238   1.78430048  -2.50489296
N   -0.63013632   0.84700048  -2.95680838
C   -1.44206231  -3.17025826   1.86534518
H   -0.87016693  -3.99106210   2.24497253
H   -1.33952196  -3.12604123   0.80118851
H   -2.47264950  -3.30604111   2.11902246
C   -0.92946952  -1.85712566   2.48545116
N   -0.54782090  -0.87943876   2.94714824
