21
Energy:   -118.05365743
O    0.78433643   0.60001759   2.67423509
H    1.18597786   0.76935361   1.82203715
H    0.18809320  -0.13216756   2.51729321
O    1.84210039   0.84439695   0.09849002
H    2.56033268   1.47197923   0.01777635
H    1.58701154   0.65419374  -0.80427477
O    0.92958728   0.28763378  -2.44591536
H    0.91542390  -0.15031517  -3.29693355
H    0.00677714   0.41923920  -2.22835314
C   -2.79001952   1.41438011   0.84011142
H   -2.56882367   2.44951529   0.99653305
H   -2.38125444   0.83703862   1.64291090
H   -3.85068417   1.27745610   0.80632677
C   -2.17012702   0.95256681  -0.49182769
N   -1.70858888   0.60872582  -1.48351689
C    0.61911958  -2.51172861  -0.51183833
H    0.13358862  -2.26661104  -1.43329220
H    0.71471544  -3.57435729  -0.43071607
H    1.59049818  -2.06355629  -0.49029122
C   -0.21772589  -1.98015593   0.66660138
N   -0.84079538  -1.58437591   1.54400331
