21
Energy:   -118.27833501
O    1.57257056   0.00083729   0.71085744
H    2.06183680   0.41330692  -0.00098467
H    1.34090592   0.72413439   1.29344190
O    2.39002062   0.58598777  -1.86160091
H    3.05550745   0.34814367  -2.50719314
H    1.66210537  -0.01052676  -2.03636260
O    0.10512119  -0.90697587  -1.38548689
H    0.56302155  -0.71177788  -0.56789479
H   -0.53530212  -1.57745929  -1.14770167
C   -1.36040806   2.06566627  -0.96377919
H   -2.07187517   1.31797529  -1.24604314
H   -0.46497081   1.94000425  -1.53588082
H   -1.76989665   3.03635023  -1.15083756
C   -1.03582949   1.92558219   0.53509545
N   -0.79416599   1.82128322   1.65107576
C   -1.40853026  -1.58838423   2.61259374
H   -0.96262814  -2.34266032   3.22671022
H   -2.36801359  -1.32771109   3.00799271
H   -0.78078639  -0.72197465   2.59951083
C   -1.57283945  -2.12494803   1.17847318
N   -1.69517510  -2.52444416   0.11070523
