21
Energy:   -121.00099682
O    0.84050542  -2.07838842  -0.36013856
H   -0.09633674  -1.90417647  -0.45074098
H    1.26014576  -1.44061030  -0.93752310
O    1.98267467   0.00849498  -1.76520138
H    2.85255477   0.33447258  -1.99602397
H    1.50502066   0.78500569  -1.47346588
O   -1.85875102  -1.44685595  -0.24306801
H   -2.36649658  -2.22995408  -0.03050362
H   -1.69155018  -1.03218723   0.60329219
C   -2.25723119   1.91890849  -0.58313329
H   -2.70972896   2.84519479  -0.86973343
H   -2.54465803   1.67644172   0.41861257
H   -2.58204046   1.14344766  -1.24499320
C   -0.72480762   2.05080367  -0.65982518
N    0.41615139   2.14900562  -0.71692577
C    1.70276804   0.13106510   2.10174882
H    2.05128091   0.28707371   3.10129885
H    1.99368366   0.95882709   1.48931327
H    2.13004781  -0.76892635   1.71143296
C    0.16750280   0.01048556   2.10635639
N   -0.97557195  -0.07929138   2.10978694
