21
Energy:   -119.73629911
O    1.88795815  -0.86382561  -0.18338854
H    1.07734544  -1.28361903  -0.47133360
H    1.60140846  -0.17328153   0.41433212
O    2.37519752   0.73894002  -2.33102300
H    2.23635301   0.13653004  -1.60023146
H    3.27727717   0.57720585  -2.60729497
O   -0.57989557  -1.81908139  -0.91432367
H   -0.86313672  -2.64242653  -1.31195300
H   -1.18583893  -1.68343486  -0.18585644
C   -0.77159871   1.82110876  -1.53961403
H   -1.56369359   2.53705433  -1.46955808
H   -1.15547890   0.90147446  -1.92923928
H   -0.00998023   2.19450708  -2.19184871
C   -0.17523391   1.57685339  -0.14094025
N    0.26878679   1.39499416   0.90043596
C   -1.52517948   0.04012490   3.57961630
H   -2.28495924   0.75644147   3.81312318
H   -0.59405281   0.54471987   3.42701831
H   -1.42701690  -0.65246995   4.38929251
C   -1.91307235  -0.72025755   2.29783720
N   -2.20187622  -1.28639685   1.34349440
