60
Energy:   -254.72415858
    C      2.19382815      3.20606154     -2.39892864
    H      2.15394093      3.91469337     -3.19964714
    H      2.32809702      2.22285109     -2.79913881
    H      3.01337144      3.44328755     -1.75319517
    C      0.87845710      3.25982147     -1.59986114
    N     -0.10089644      3.29984818     -1.00491907
    C      1.66936605     -2.34062918     -3.54700634
    H      1.89346430     -3.29916327     -3.96640181
    H      2.42010551     -2.08054853     -2.83031435
    H      1.64967815     -1.60657392     -4.32525717
    C      0.29466187     -2.39186929     -2.85479042
    N     -0.72886788     -2.43001987     -2.33940421
    C     -0.45830829     -0.01173034      0.26601408
    H     -1.23069919     -0.38975603     -0.37070334
    H     -0.71120696      0.97793764      0.58460258
    H     -0.35820105     -0.64704591      1.12114668
    C      0.87326502      0.02234153     -0.50687118
    N      1.86468187      0.04770958     -1.08231939
    C     -3.93534446     -2.25929552     -0.70970167
    H     -3.29048793     -1.87807922     -1.47372678
    H     -4.75823526     -1.58966423     -0.57061986
    H     -4.30332574     -3.22098764     -1.00062628
    C     -3.14948882     -2.38761298      0.60846583
    N     -2.56438359     -2.48315116      1.58990145
    C      4.36436581     -0.65492281      1.17042351
    H      4.24509533      0.08780599      0.40948418
    H      4.57563634     -1.60033726      0.71604990
    H      5.17377113     -0.37960021      1.81382041
    C      3.06701358     -0.75946592      1.99355651
    N      2.10107588     -0.83730301      2.60641645
    C     -1.05293065     -1.21498351      4.30234935
    H     -1.92933896     -1.82875424      4.29264595
    H     -0.69628281     -1.11833320      5.30652071
    H     -0.29496950     -1.66591822      3.69650129
    C     -1.39576218      0.17829469      3.74302620
    N     -1.65101584      1.21565364      3.32658469
    C     -1.94039209      0.94386538     -3.14297759
    H     -2.10613613     -0.00207274     -2.67114058
    H     -2.72753333      1.13674404     -3.84162313
    H     -1.92518212      1.71471966     -2.40105345
    C     -0.59083820      0.91825411     -3.88436033
    N      0.41396601      0.89918535     -4.43635348
    C      1.21706493      2.72230848      2.37532047
    H      0.37769487      2.90068078      1.73614802
    H      1.25863541      3.48034170      3.12934741
    H      1.11495707      1.76335450      2.83887234
    C      2.51226120      2.75476148      1.54284620
    N      3.47659370      2.77892421      0.92303127
    C      0.51704242     -3.67146078      0.88739652
    H      0.41773247     -4.64398194      1.32241413
    H     -0.28357807     -3.50607791      0.19706729
    H      0.48186034     -2.93051273      1.65853677
    C      1.86290778     -3.57619617      0.14498755
    N      2.86496573     -3.50526734     -0.40776966
    C     -3.04406370      3.26878294      1.06954601
    H     -3.53455219      4.12098426      0.64755769
    H     -1.98400914      3.40153903      1.00988674
    H     -3.33303947      3.16204247      2.09424039
    C     -3.44790471      2.00480480      0.28796319
    N     -3.74858270      1.06371563     -0.29396075
