60
Energy:   -253.22738287
    C      4.31057781      2.41845959     -0.90105782
    H      4.89438805      3.08772479     -1.49784076
    H      4.07808711      1.54306131     -1.47072879
    H      4.86633107      2.14004926     -0.03012435
    C      3.00506873      3.11584114     -0.47572852
    N      2.03305787      3.63507340     -0.15905153
    C     -1.28570260     -1.57462860     -3.73726993
    H     -2.06229217     -1.10607867     -4.30495803
    H     -1.18717321     -2.59546680     -4.04236076
    H     -0.36192843     -1.06144882     -3.90515949
    C     -1.63934768     -1.51834150     -2.23948259
    N     -1.90265252     -1.47643319     -1.12431184
    C     -1.44089767     -4.42061843      0.35588369
    H     -2.34040155     -3.84360225      0.40922478
    H     -1.58380083     -5.35169705      0.86339762
    H     -1.19690862     -4.60690322     -0.66913651
    C     -0.29177057     -3.64292097      1.02393575
    N      0.56380678     -3.06388985      1.52133088
    C     -4.55366065      0.47475562     -0.57436606
    H     -4.43057802     -0.53347464     -0.23788041
    H     -4.44821778      0.51099018     -1.63854084
    H     -5.52645434      0.82602600     -0.30017518
    C     -3.48246890      1.36813764      0.07833356
    N     -2.68491796      2.03330117      0.56429810
    C      0.56587354      0.36133937     -0.01045496
    H      0.59799054     -0.63866535      0.36883284
    H     -0.44919276      0.69826872     -0.04236296
    H      1.13495547      1.00365748      0.62866341
    C      1.16153423      0.39121436     -1.43027743
    N      1.60503069      0.41345765     -2.48739979
    C     -0.36288172      3.99393763      2.16490631
    H      0.36493768      4.77517091      2.23457448
    H     -1.25340184      4.28918891      2.67939603
    H     -0.59019799      3.80898081      1.13582060
    C      0.19845219      2.71080184      2.80527088
    N      0.61639080      1.75544892      3.28205140
    C     -0.68165783      3.30106694     -2.24564603
    H     -0.95635656      4.30377151     -2.49867634
    H      0.28877182      3.08631555     -2.64193787
    H     -0.66393007      3.19393688     -1.18117059
    C     -1.70850685      2.32118882     -2.84315751
    N     -2.47304262      1.59162502     -3.28803197
    C      2.51722141     -0.98584533      3.42932259
    H      1.46046120     -1.02496246      3.26614207
    H      2.73076316     -0.29740860      4.22011579
    H      2.87294439     -1.95867504      3.69758104
    C      3.21885175     -0.52023176      2.13993558
    N      3.74124743     -0.17356130      1.17992834
    C      3.04591745     -2.68444777     -1.12330501
    H      2.84866466     -2.55591460     -0.07952786
    H      3.26344064     -1.73437039     -1.56482027
    H      3.88433965     -3.33702982     -1.25012765
    C      1.81003983     -3.29761143     -1.80758334
    N      0.88987277     -3.75413965     -2.31705966
    C     -1.76241431     -0.60798692      2.84335492
    H     -0.90373623     -0.81999575      2.24117191
    H     -1.54785892     -0.84153624      3.86527458
    H     -2.00984852      0.42958570      2.75898398
    C     -2.95095006     -1.46004673      2.36067816
    N     -3.83586894     -2.09444399      2.00130336
