60
Energy:   -253.08854215
    C      2.66304219      1.62371034     -2.69907746
    H      2.71052963      1.04444819     -1.80068975
    H      2.71999801      2.66417909     -2.45601386
    H      3.48133068      1.36103482     -3.33649774
    C      1.33499590      1.33797350     -3.42450664
    N      0.34620507      1.12522943     -3.96462164
    C     -4.49707202      0.01359020      2.19599045
    H     -4.26612660     -1.00968691      1.98511526
    H     -5.55376181      0.16371019      2.12003143
    H     -4.17273093      0.25562026      3.18650718
    C     -3.77542483      0.92194300      1.18321183
    N     -3.23812569      1.59825295      0.42915212
    C     -1.40256890      3.17506046     -1.86197202
    H     -2.25322767      3.66911134     -1.44102837
    H     -1.43560400      2.13465594     -1.61424996
    H     -1.41424182      3.28893677     -2.92583057
    C     -0.11390773      3.79750561     -1.29318874
    N      0.84555909      4.26094432     -0.86970373
    C     -2.20854800     -0.75412638     -2.35123655
    H     -1.32518665     -0.16685695     -2.21092431
    H     -3.02716369     -0.11257079     -2.60258067
    H     -2.04859504     -1.45527697     -3.14351302
    C     -2.53194660     -1.51358444     -1.05114548
    N     -2.77273155     -2.07903550     -0.08316859
    C     -1.66383229     -5.38882781     -0.50204828
    H     -1.96677993     -6.40090682     -0.67180982
    H     -2.43658436     -4.86876544      0.02453359
    H     -0.76609066     -5.37811058      0.08005497
    C     -1.40770523     -4.69611520     -1.85339878
    N     -1.21700699     -4.18035918     -2.85954065
    C      3.22463832      2.69483472      0.98526357
    H      4.23633886      2.38183491      0.83231487
    H      3.20023011      3.75036843      1.15890667
    H      2.64431372      2.46273140      0.11678761
    C      2.63890795      1.96019495      2.20543747
    N      2.20280507      1.41322225      3.11391241
    C      3.42147524     -1.84147663      2.27975774
    H      2.70188993     -1.28558579      2.84374580
    H      4.32681984     -1.92797994      2.84346637
    H      3.03548490     -2.81774726      2.07286112
    C      3.70965879     -1.11194259      0.95449161
    N      3.92422454     -0.56877134     -0.03222927
    C     -0.36386111     -0.86150702      2.03256710
    H      0.13043178     -0.47995076      2.90146843
    H     -0.10928142     -1.89244930      1.90124195
    H     -1.42276478     -0.76838836      2.15484152
    C      0.08235266     -0.06089644      0.79502277
    N      0.41457910      0.53519452     -0.12638524
    C     -0.66282536      3.37732018      2.30669575
    H     -1.39245981      4.05400293      1.91346020
    H     -0.18500358      2.86029979      1.50091951
    H      0.06894732      3.92541214      2.86257619
    C     -1.35361019      2.35868123      3.23232581
    N     -1.86793090      1.60025823      3.92149946
    C      1.52222028     -2.11489904     -2.28578374
    H      1.33797399     -2.79749461     -3.08891310
    H      2.51948608     -1.73478984     -2.36244542
    H      0.82627481     -1.30397262     -2.34016511
    C      1.35372087     -2.84667395     -0.94127140
    N      1.22826541     -3.39151364      0.05977915
