60
Energy:   -253.05825600
    C     -2.11824129      3.36049918     -4.03986611
    H     -2.57468337      3.96896034     -4.79241898
    H     -1.63293004      2.52617207     -4.50167815
    H     -1.39706460      3.93963905     -3.50190674
    C     -3.19774856      2.85204790     -3.06634602
    N     -4.00149079      2.47348282     -2.34151607
    C      1.09840208     -2.40949945     -4.25325885
    H      2.16632687     -2.42749918     -4.18912745
    H      0.77059981     -1.41339049     -4.46588928
    H      0.77694605     -3.06532617     -5.03521564
    C      0.49583421     -2.87334619     -2.91409561
    N      0.04719505     -3.21870116     -1.91702771
    C      2.35809721      3.56052512      1.07744522
    H      3.09680740      4.15105292      1.57792934
    H      1.86303596      4.15799121      0.34066322
    H      2.83044017      2.72655051      0.60175879
    C      1.32760227      3.05100107      2.10217222
    N      0.56035195      2.67163727      2.86512806
    C     -1.34338165     -0.01549076      3.73910482
    H     -0.44316089      0.03977423      3.16338914
    H     -1.20595545     -0.69835764      4.55132767
    H     -1.58034392      0.95414105      4.12454242
    C     -2.49577112     -0.50775902      2.84396770
    N     -3.35377747     -0.87427511      2.17749742
    C     -2.96388406     -0.85901042     -1.42961905
    H     -3.84900552     -0.25821142     -1.45199621
    H     -2.52091899     -0.80540491     -0.45709271
    H     -3.21668452     -1.87489878     -1.65089230
    C     -1.96366393     -0.33874296     -2.47865740
    N     -1.21895457      0.04861982     -3.25971413
    C      2.48129045     -0.19913120      4.05793157
    H      3.26633016     -0.12473078      4.78117247
    H      2.05258152     -1.17873826      4.09637322
    H      1.72737824      0.52885106      4.27370296
    C      3.05351153      0.05593986      2.65112604
    N      3.47955614      0.24585186      1.60369538
    C      2.75990785     -2.95590658      0.45459912
    H      3.58283025     -3.14494471      1.11183842
    H      2.21171800     -3.86167881      0.29979717
    H      2.11703137     -2.21999672      0.89054132
    C      3.28976087     -2.43935722     -0.89596837
    N      3.68426052     -2.05476274     -1.90152725
    C     -2.38616798      2.42244033      0.73805618
    H     -2.40255714      1.35961210      0.61546860
    H     -3.34415235      2.82560741      0.48384890
    H     -2.15765620      2.66059408      1.75587947
    C     -1.31268269      3.02909699     -0.18454723
    N     -0.51342410      3.48078045     -0.87146739
    C     -1.33088246     -3.48374526      1.11784180
    H     -1.04850271     -4.38377915      0.61276670
    H     -1.31453695     -2.66687522      0.42693279
    H     -2.31747474     -3.59338786      1.51723293
    C     -0.34086641     -3.20624759      2.26434224
    N      0.39624554     -2.99963797      3.11796394
    C      1.65857305      0.68600269     -1.45448209
    H      1.37451844      1.68201382     -1.72313616
    H      1.57417917      0.04816582     -2.30943290
    H      2.67069962      0.68512171     -1.10735371
    C      0.73215611      0.17176657     -0.33693439
    N      0.04239659     -0.21110561      0.49513067
