60
Energy:   -252.94313896
    C     -1.86789496      1.71619224      2.26645499
    H     -2.90876509      1.90602985      2.10692052
    H     -1.62865857      1.88277694      3.29597652
    H     -1.64677138      0.70155309      2.00855800
    C     -1.03239280      2.66353414      1.38550126
    N     -0.41032346      3.36887324      0.72959117
    C      1.44487578     -0.30123704      3.15263024
    H      1.48802704      0.08283995      4.15038924
    H      1.76839196     -1.32114946      3.14875217
    H      0.43911170     -0.24471148      2.79187747
    C      2.36469886      0.53253759      2.24139735
    N      3.04954894      1.15332071      1.56294305
    C      4.17852533     -1.11058188     -0.82696087
    H      4.52703284     -0.26989673     -0.26420766
    H      3.56264332     -0.76977090     -1.63283698
    H      5.01578141     -1.64812692     -1.22059353
    C      3.35832038     -2.03739175      0.08949280
    N      2.74764052     -2.72744382      0.77183421
    C      1.20313903      1.28549598     -1.50540643
    H      0.56582527      2.10782869     -1.75540696
    H      1.55370204      0.82023927     -2.40292571
    H      2.03801862      1.64085139     -0.93831058
    C      0.41424185      0.26012550     -0.67002831
    N     -0.17312797     -0.50330944     -0.04805133
    C     -1.79652519     -0.94825800     -3.52899139
    H     -2.83874321     -0.78621463     -3.34892550
    H     -1.32239268     -1.26140606     -2.62232952
    H     -1.67703097     -1.70661011     -4.27432508
    C     -1.15088793      0.36068226     -4.02034454
    N     -0.67018165      1.33524779     -4.38617929
    C      2.31342767      4.40831207      2.60563484
    H      3.32887063      4.44277088      2.94117675
    H      1.91792283      5.40162543      2.56316644
    H      2.27440340      3.96693170      1.63169461
    C      1.47734451      3.56434471      3.58557567
    N      0.85484260      2.93597264      4.31518617
    C     -3.70790545     -1.16205126      0.17536122
    H     -4.45774408     -0.74845850     -0.46618632
    H     -2.94864601     -0.42979557      0.35487671
    H     -4.15293104     -1.44967949      1.10494248
    C     -3.08095907     -2.39724900     -0.49756134
    N     -2.61416899     -3.31690987     -0.99858277
    C      0.75443956     -4.32729420     -1.83986530
    H      1.18110338     -4.40662209     -0.86182377
    H      1.10912433     -5.13153299     -2.45002739
    H     -0.31204399     -4.37698356     -1.76885190
    C      1.16482146     -2.98410074     -2.47154405
    N      1.47036944     -1.98403216     -2.94185758
    C     -1.92679323      3.94930373     -2.39892879
    H     -2.66758380      4.72043910     -2.43739653
    H     -1.55912011      3.75839627     -3.38547322
    H     -1.11855510      4.26214162     -1.77140774
    C     -2.55304288      2.66395430     -1.82683770
    N     -3.01931420      1.70695322     -1.40088988
    C     -0.41920881     -3.54635603      1.72978787
    H     -0.99515908     -4.41051511      1.47208543
    H      0.41214778     -3.83965471      2.33618806
    H     -0.06160626     -3.07690169      0.83724536
    C     -1.30148492     -2.55614363      2.51251917
    N     -1.95837959     -1.81888550      3.09529820
