60
Energy:   -252.84836249
    C      0.69359830      1.66409284     -3.46119850
    H      0.25303586      2.05378538     -4.35503553
    H      0.61488827      0.59699231     -3.46067301
    H      1.72505686      1.94566765     -3.41987123
    C     -0.04356812      2.23379774     -2.23497584
    N     -0.59242203      2.65796893     -1.32199734
    C     -1.25690024     -1.83210876     -3.01511440
    H     -0.20534955     -1.76060261     -2.83064707
    H     -1.49455156     -1.32389648     -3.92623526
    H     -1.53524289     -2.86193482     -3.09807672
    C     -2.02770294     -1.18428907     -1.84987071
    N     -2.60160059     -0.70195787     -0.98229382
    C      0.35621712     -0.06806474      0.65089282
    H      0.05500910      0.95722004      0.70534495
    H     -0.32523131     -0.67041801      1.21453958
    H      0.35326646     -0.38690911     -0.37049284
    C      1.77475711     -0.21787269      1.23132532
    N      2.83092461     -0.32941152      1.66348370
    C     -2.58313093     -3.23437762      1.58350918
    H     -2.96179129     -2.26994174      1.31633893
    H     -3.28514786     -3.72886167      2.22191096
    H     -2.43419077     -3.81681277      0.69836218
    C     -1.24212356     -3.07248543      2.32316461
    N     -0.24368262     -2.95194934      2.87387170
    C      4.80209349     -0.22722592     -1.37358620
    H      5.06334696      0.64712013     -1.93230419
    H      5.51763415     -0.99952237     -1.56452821
    H      4.79805850      0.00494803     -0.32908725
    C      3.40204502     -0.70825884     -1.79793465
    N      2.35964529     -1.06640972     -2.11388136
    C      0.32816956     -0.25842969      4.81530989
    H      1.09257855     -0.86348974      4.37430943
    H     -0.61029576     -0.76876996      4.75419730
    H      0.56742656     -0.07350634      5.84169117
    C      0.23432914      1.08076399      4.06075420
    N      0.16446069      2.07785455      3.49895319
    C     -4.01719514      2.24032627     -2.34429049
    H     -4.88592752      2.72989212     -2.73227181
    H     -3.41543720      2.94870106     -1.81420406
    H     -4.31619238      1.45760168     -1.67882678
    C     -3.20261755      1.64272448     -3.50658798
    N     -2.59612751      1.19778279     -4.37197130
    C      2.06791825      3.45621764      1.11705953
    H      2.39857392      2.82143304      1.91243084
    H      1.00351019      3.39212593      1.02859015
    H      2.34808268      4.46719175      1.32762623
    C      2.72074699      3.00702933     -0.20341178
    N      3.20680767      2.67258821     -1.18656269
    C      2.39796709     -3.66509983      0.56697333
    H      2.23108840     -3.35420311      1.57711932
    H      3.03652238     -2.95968162      0.07755390
    H      2.86201750     -4.62922477      0.56256731
    C      1.05121729     -3.74021454     -0.17614358
    N      0.04850085     -3.79614086     -0.72942791
    C     -2.72695697      2.00990757      1.37480855
    H     -3.64893131      2.55004992      1.43057355
    H     -2.57023451      1.67452095      0.37088974
    H     -1.92057982      2.64959744      1.66713004
    C     -2.78614672      0.79453498      2.31871853
    N     -2.83021618     -0.11036516      3.02150242
