60
Energy:   -252.83570344
    C     -1.15817262      4.30333083     -1.47014056
    H     -1.31235237      5.33840812     -1.69317371
    H     -1.86015052      3.71164652     -2.01971840
    H     -0.16287037      4.02349611     -1.74575815
    C     -1.35843720      4.06792876      0.03852772
    N     -1.50754328      3.89266123      1.16179983
    C     -2.14371385     -4.31891651     -1.93300892
    H     -2.82414453     -3.56187878     -1.60314812
    H     -2.69437428     -5.13731882     -2.34760491
    H     -1.49263077     -3.91289352     -2.67875368
    C     -1.30893436     -4.81496786     -0.73773646
    N     -0.68740309     -5.18430064      0.15219822
    C      4.61839759      0.89287574      1.80409296
    H      4.37582907      1.66831291      1.10784739
    H      5.29915639      0.20452910      1.34841166
    H      5.07319124      1.32241376      2.67217068
    C      3.33316596      0.14931550      2.21262429
    N      2.37625260     -0.40429889      2.51679443
    C     -0.83366811     -2.55851734      2.64408356
    H      0.02881175     -1.93480860      2.75370142
    H     -0.52492629     -3.57532614      2.51887398
    H     -1.44628583     -2.47676349      3.51753358
    C     -1.63764168     -2.11041072      1.40940670
    N     -2.23623654     -1.77677498      0.49013365
    C      2.82307343      0.70472084     -3.17195009
    H      3.51716424      0.87659167     -3.96793913
    H      2.42893852      1.64037660     -2.83415568
    H      2.02331029      0.08680015     -3.52330751
    C      3.54242352      0.00005309     -2.00679825
    N      4.07801235     -0.52460408     -1.13928974
    C     -3.94069615      1.23317272      1.55910178
    H     -4.98541490      1.29437031      1.78207656
    H     -3.41380265      1.98389426      2.11019115
    H     -3.57359704      0.26614375      1.83294901
    C     -3.72376278      1.45641534      0.05089004
    N     -3.56224603      1.62262961     -1.07204216
    C      0.09861267      0.67217776      0.04834141
    H      0.23550392      0.07591239      0.92619594
    H      0.17177358      0.05093992     -0.81976580
    H     -0.86675565      1.13276688      0.07699044
    C      1.18570524      1.76157018     -0.00692074
    N      1.99509507      2.57267235     -0.04806592
    C      0.62389154      2.64150398      3.57128033
    H      1.04595076      2.67062834      4.55409159
    H      0.14912231      3.57664671      3.35914516
    H      1.39911273      2.46456227      2.85530350
    C     -0.41598635      1.50834195      3.49255416
    N     -1.19022269      0.66465131      3.43393895
    C      2.07706426     -3.06600430      0.05570956
    H      3.12682283     -2.91195580     -0.08276853
    H      1.88760698     -4.10653529      0.21788315
    H      1.74331488     -2.50620714      0.90431877
    C      1.31922177     -2.59582078     -1.19975937
    N      0.75497359     -2.24574779     -2.13451305
    C     -2.06734237     -0.54742443     -3.10700339
    H     -3.06016734     -0.26007403     -3.38382192
    H     -2.06314179     -0.88191034     -2.09063701
    H     -1.73446675     -1.33962873     -3.74458104
    C     -1.12355262      0.66059962     -3.25376451
    N     -0.42085826      1.56002843     -3.36303484
