60
Energy:   -252.64330597
    C     -0.87586522      4.02296426     -1.66194798
    H     -1.16447427      5.03764588     -1.84090660
    H     -1.66978477      3.50936112     -1.16114596
    H     -0.67149228      3.54044710     -2.59485097
    C      0.38802473      3.99624976     -0.78247738
    N      1.32904825      3.97635960     -0.12767155
    C      0.08491089      0.47621187     -0.26639356
    H     -0.27401266      1.23782876     -0.92670695
    H      1.13655950      0.34385575     -0.41273615
    H     -0.10050629      0.76613350      0.74675254
    C     -0.64523452     -0.84672601     -0.56358548
    N     -1.18886097     -1.83171339     -0.78485838
    C      3.80185929      1.74568815     -1.73665497
    H      4.65804323      1.99220615     -2.32917344
    H      3.90542500      0.75073362     -1.35686725
    H      3.72335294      2.43275463     -0.92015298
    C      2.53352547      1.83401532     -2.60563576
    N      1.58919328      1.89977891     -3.25263146
    C      0.18499386     -4.59932911     -1.95056681
    H     -0.85807678     -4.39176777     -2.06813434
    H      0.42456403     -5.51584929     -2.44805650
    H      0.75753229     -3.80205747     -2.37654423
    C      0.51740712     -4.72643377     -0.45225249
    N      0.76490391     -4.82106896      0.66331064
    C     -1.35503554     -3.01908747      2.62078134
    H     -2.24810834     -2.97699972      3.20861616
    H     -0.76991644     -3.86314835      2.92094124
    H     -1.61286617     -3.11344858      1.58660610
    C     -0.54072759     -1.72903392      2.83117239
    N      0.06556170     -0.76853041      2.98781810
    C      1.59857601      2.36882638      2.88717290
    H      2.10150515      3.21638880      3.30382673
    H      1.19099236      1.77238328      3.67649558
    H      0.80829843      2.70201221      2.24737008
    C      2.59876049      1.52786229      2.07230459
    N      3.34344331      0.90172629      1.46559809
    C      3.07497331     -2.33916447      1.00490385
    H      2.29266316     -1.95489103      1.62556876
    H      4.00327090     -1.88181926      1.27692965
    H      3.14712050     -3.39854279      1.13685636
    C      2.76102195     -2.02575279     -0.46981906
    N      2.52727088     -1.79240354     -1.56781730
    C     -4.03980112      0.26389947     -0.52968682
    H     -3.73034396     -0.45124456     -1.26297085
    H     -3.42129302      1.13441029     -0.59719780
    H     -5.05950697      0.53638995     -0.70532283
    C     -3.90776300     -0.35189627      0.87564643
    N     -3.80945462     -0.81038419      1.92198092
    C     -0.31469937     -0.63134715     -4.21147658
    H     -0.81549329     -1.48677619     -4.61439938
    H      0.35145200     -0.94154255     -3.43371038
    H      0.24227320     -0.14654247     -4.98584412
    C     -1.35431645      0.34852613     -3.63645946
    N     -2.12835862      1.07808632     -3.20833308
    C     -2.27314959      1.61342485      3.95297224
    H     -2.97153929      0.80278808      3.95744846
    H     -2.62430506      2.39030997      4.59953117
    H     -1.32135114      1.26610257      4.29698681
    C     -2.13246714      2.16188743      2.52084192
    N     -2.02772266      2.57024275      1.45455580
