60
Energy:   -252.47188014
    C      2.33786716      3.87622510     -1.83918289
    H      2.12122872      4.38163076     -2.75707890
    H      2.72455388      2.90138149     -2.05143846
    H      3.06389559      4.43543726     -1.28685729
    C      1.04818428      3.74701709     -1.00754394
    N      0.08795675      3.65081585     -0.38835094
    C      0.60013067     -2.73444733     -3.01543345
    H      0.47640622     -3.48023802     -3.77265779
    H      0.85808921     -1.80182529     -3.47213097
    H     -0.31423782     -2.62403375     -2.47078844
    C      1.72294303     -3.16225859     -2.05217340
    N      2.55892788     -3.48078352     -1.33498251
    C     -0.41430128      0.17772504      0.04137628
    H     -0.23499871     -0.68678211      0.64584146
    H     -1.35818807      0.07800266     -0.45261994
    H     -0.42644800      1.04993411      0.66105594
    C      0.70361262      0.31016595     -1.00949379
    N      1.53595033      0.40877422     -1.79191433
    C     -3.86142200     -1.61910616     -1.08524522
    H     -2.93137124     -2.08072441     -1.34372997
    H     -4.03937517     -0.78738313     -1.73445132
    H     -4.65403226     -2.33008086     -1.19099512
    C     -3.80311392     -1.12850742      0.37335446
    N     -3.75970091     -0.76323435      1.45934823
    C      4.11503729     -1.04086047      0.32506465
    H      3.76135895     -0.66350314     -0.61163875
    H      4.54448923     -2.01008232      0.17987816
    H      4.85629816     -0.37778312      0.71972888
    C      2.93911632     -1.14335387      1.31415765
    N      2.06358970     -1.21966488      2.05058235
    C     -1.16679152     -1.58164769      3.57537312
    H     -1.62784074     -1.93426068      2.67648611
    H     -1.72819050     -1.92061129      4.42085166
    H     -0.16766517     -1.95979181      3.63581035
    C     -1.13322541     -0.04204677      3.56525697
    N     -1.10823391      1.10425609      3.55772504
    C     -1.09262351      2.10523610     -3.64485333
    H     -1.62836657      2.60227872     -4.42640831
    H     -0.04167555      2.17214762     -3.83440628
    H     -1.31629681      2.57024542     -2.70749764
    C     -1.51221185      0.62429525     -3.59627523
    N     -1.82461444     -0.47833253     -3.56010663
    C      1.77579654      2.40785212      2.65718368
    H      0.86102154      2.70276480      2.18695673
    H      2.02731432      3.11294827      3.42169485
    H      1.65659198      1.43753429      3.09212355
    C      2.90195858      2.36511918      1.60764428
    N      3.74043740      2.33330256      0.82621449
    C      0.98655993     -4.49943054      1.63624559
    H      1.28711259     -3.87153107      2.44884053
    H      1.82691942     -4.68764462      1.00120977
    H      0.61504304     -5.42644671      2.02032281
    C     -0.12079604     -3.79803727      0.82790765
    N     -0.94527290     -3.27581810      0.22606331
    C     -3.01365207      2.84307717      1.37231216
    H     -3.58689107      3.72872756      1.55097554
    H     -1.97376434      3.05900825      1.50233665
    H     -3.30895592      2.08158613      2.06356185
    C     -3.26026103      2.35360028     -0.06685302
    N     -3.44387261      1.98916249     -1.13837690
