60
Energy:   -252.47089078
    C      2.11125200      3.56397820     -1.89437056
    H      2.05651031      4.17250992     -2.77277404
    H      2.47728872      2.59300435     -2.15538013
    H      2.77447471      4.01699846     -1.18740000
    C      0.70867246      3.43361317     -1.27197553
    N     -0.33561177      3.33655047     -0.80857414
    C      2.79528569     -1.69160319     -3.32373999
    H      1.74247617     -1.82005917     -3.46513083
    H      3.32038894     -2.10408857     -4.15981503
    H      3.01941813     -0.64861150     -3.24108366
    C      3.23220583     -2.41418166     -2.03588086
    N      3.55751273     -2.95217417     -1.07701119
    C     -0.66736783     -0.01567955      0.34727769
    H     -1.39143796     -0.36900267     -0.35684261
    H     -0.97956760      0.93145022      0.73506061
    H     -0.57810059     -0.71776007      1.14978214
    C      0.69561053      0.14015415     -0.35244072
    N      1.71040987      0.25617942     -0.87341289
    C     -3.93476375     -2.37537625     -1.06278945
    H     -3.24415085     -1.97764118     -1.77676481
    H     -4.75388007     -1.69745189     -0.94293079
    H     -4.30084821     -3.31955317     -1.40834870
    C     -3.22292565     -2.56461311      0.28964388
    N     -2.69292982     -2.70550855      1.29659198
    C      4.11114730     -0.59279782      1.50687518
    H      4.46483727     -1.53837599      1.15235368
    H      4.81646468     -0.18556267      2.20083916
    H      3.99589663      0.07741547      0.68078164
    C      2.75284073     -0.78259275      2.20729016
    N      1.74151975     -0.92390371      2.72878096
    C     -1.51691156     -1.42290896      4.15739515
    H     -2.36927416     -2.06966385      4.16668432
    H     -1.12402936     -1.33637513      5.14888624
    H     -0.76751080     -1.82975725      3.51104226
    C     -1.93418089     -0.03104952      3.64728379
    N     -2.24485688      1.00525310      3.26748270
    C     -1.22719957      0.60156851     -3.32645200
    H     -1.17494551     -0.40100561     -2.95629685
    H     -1.98217697      0.66387929     -4.08211435
    H     -1.47035347      1.26592757     -2.52370527
    C      0.13415898      0.99866511     -3.92696610
    N      1.14775230      1.29432158     -4.37407614
    C      0.72383505      2.62331453      2.66605293
    H     -0.05919524      2.88226182      1.98435648
    H      0.71134103      3.29793422      3.49649333
    H      0.57533393      1.62333633      3.01660978
    C      2.08252837      2.71889720      1.94743175
    N      3.09413731      2.79006284      1.41238561
    C      0.64362722     -3.75612908      0.42557466
    H      1.14870605     -4.67702165      0.22124051
    H     -0.12229442     -3.92337461      1.15378621
    H      1.34447460     -3.04103880      0.80287817
    C      0.01034844     -3.21921815     -0.87145450
    N     -0.46115640     -2.81946356     -1.83715166
    C     -3.46612827      3.00342638      0.79719722
    H     -3.96399066      2.76447363      1.71367679
    H     -3.89140005      3.89304075      0.38171042
    H     -2.42502632      3.16097119      0.98742200
    C     -3.63591397      1.84021123     -0.19764113
    N     -3.76232714      0.97414468     -0.93834349
