60
Energy:   -252.41382724
    C      0.69132565      2.72799512     -0.81261344
    H      0.07853450      3.05806742      0.00006083
    H      1.31117771      3.53528713     -1.14270757
    H      1.30697915      1.91532019     -0.48791464
    C     -0.20491920      2.26068432     -1.97449372
    N     -0.87221423      1.91275019     -2.83956640
    C      5.41170820      2.05005388      0.23107343
    H      5.25873316      1.07926044      0.65422698
    H      5.15577200      2.79787022      0.95229911
    H      6.43897060      2.15990059     -0.04743106
    C      4.52174317      2.21287734     -1.01514115
    N      3.85912375      2.33410681     -1.94300454
    C      1.21728812     -3.60046871      0.90269258
    H      1.11034383     -4.56528325      1.35279923
    H      0.64950505     -2.88310809      1.45759367
    H      2.24930587     -3.31792725      0.90565716
    C      0.70305614     -3.65096861     -0.54803662
    N      0.32018705     -3.68856809     -1.62817046
    C     -2.41105743     -0.47214084      1.73219042
    H     -2.21337942     -1.06390732      2.60146369
    H     -3.22809605     -0.89862515      1.18862983
    H     -2.66177751      0.52485702      2.02889531
    C     -1.15878942     -0.44155246      0.83637281
    N     -0.22641897     -0.41877801      0.16939588
    C     -0.48473222      3.95932956      2.95114496
    H     -0.33951436      4.63298397      3.76968127
    H     -1.37781846      4.22469501      2.42495369
    H      0.35190453      4.01964046      2.28684035
    C     -0.61249258      2.52103775      3.48648966
    N     -0.70761598      1.45016412      3.88507813
    C      2.16627447     -0.21798308      2.81889835
    H      1.73512981     -0.77919159      2.01636520
    H      1.50224819     -0.22756672      3.65787173
    H      3.10116861     -0.65666557      3.09895141
    C      2.39695369      1.23490838      2.36338379
    N      2.56870485      2.31665211      2.02423250
    C      2.27620206     -0.69149949     -2.33227022
    H      1.39219652     -0.12920317     -2.11488294
    H      2.00387921     -1.62903369     -2.77018458
    H      2.88870886     -0.14264428     -3.01673530
    C      3.05890000     -0.94137913     -1.02975569
    N      3.64165420     -1.12742588     -0.05997442
    C     -1.53849598     -1.33225193     -3.11717065
    H     -0.66430323     -1.09733833     -2.54664210
    H     -1.66029419     -0.60974788     -3.89694766
    H     -1.43280453     -2.30644612     -3.54690791
    C     -2.77350053     -1.30810623     -2.19750727
    N     -3.69301755     -1.29012866     -1.51277608
    C     -3.15531958     -4.62403488     -0.81860548
    H     -2.44115704     -4.47257221     -1.60086573
    H     -4.03857171     -4.05730804     -1.02737677
    H     -3.40399762     -5.66302431     -0.75894568
    C     -2.55404543     -4.16232199      0.52187601
    N     -2.10636950     -3.81855576      1.51992540
    C     -4.20504860      2.08019993     -1.57927545
    H     -4.83880573      1.27343160     -1.27533971
    H     -3.58778172      1.76171969     -2.39318640
    H     -4.80661022      2.90847049     -1.89070857
    C     -3.31551431      2.50762704     -0.39705939
    N     -2.65321560      2.82586595      0.48315421
