60
Energy:   -252.38677091
    C      1.76548077      3.36116354     -1.12062781
    H      1.79468333      3.23863049     -2.18318748
    H      2.42270822      2.65242633     -0.66166950
    H      2.07729807      4.35286473     -0.86725491
    C      0.32874832      3.13026255     -0.61655975
    N     -0.74096429      2.95834626     -0.24125817
    C      2.33661411     -0.28882224     -4.33312752
    H      3.07253922     -0.95980895     -4.72439630
    H      2.41566765      0.65592650     -4.82921164
    H      1.36052869     -0.69615357     -4.49510754
    C      2.56848786     -0.09658195     -2.82286985
    N      2.74112841      0.04654968     -1.69841437
    C      1.35007266     -3.67812176     -1.52361139
    H      1.40399653     -4.57896569     -2.09847886
    H      1.03707043     -3.90928115     -0.52686969
    H      2.31390533     -3.21425027     -1.49624524
    C      0.33575147     -2.71650965     -2.17018288
    N     -0.41945676     -2.00054573     -2.65158474
    C      0.18570587     -0.27891143      0.42818083
    H     -0.04263338      0.00912259     -0.57670611
    H      0.51145908     -1.29802759      0.44182592
    H      0.96268982      0.34905146      0.81140094
    C     -1.07277570     -0.13049653      1.30327920
    N     -2.00977243     -0.01999489      1.95482972
    C      4.01271615     -0.08622872      1.63412376
    H      3.70345800      0.58649337      0.86165722
    H      5.08096774     -0.14557446      1.64881105
    H      3.66232547      0.27128807      2.57980194
    C      3.42463256     -1.48359156      1.36368930
    N      2.98677760     -2.52399171      1.16233855
    C     -3.53451395     -2.21793538     -0.53079955
    H     -4.31477725     -2.88313346     -0.83674217
    H     -3.17840006     -1.67174031     -1.37918208
    H     -3.91444890     -1.53448115      0.19956942
    C     -2.37723148     -3.03032467      0.07938153
    N     -1.51558209     -3.63518542      0.53368908
    C     -2.14532031      0.91730447     -2.87015786
    H     -2.00776160      0.80032870     -1.81550415
    H     -2.30523085     -0.04145253     -3.31749747
    H     -2.99489580      1.54186727     -3.05193214
    C     -0.89039454      1.56665311     -3.48261818
    N      0.04395474      2.05012268     -3.93862273
    C     -0.20746170      2.54695065      3.50533865
    H     -0.29674548      1.59412747      3.98393721
    H     -1.01051403      2.67326437      2.80960099
    H     -0.24890635      3.32155556      4.24233842
    C      1.13648696      2.62165453      2.75712655
    N      2.13711782      2.67727496      2.20004864
    C      0.19457063     -3.01707885      3.40349392
    H      0.35095181     -3.68252512      4.22667456
    H      0.65135119     -3.42285329      2.52508757
    H     -0.85546312     -2.89698041      3.23644727
    C      0.82334087     -1.64817134      3.72340051
    N      1.29148889     -0.62895748      3.96158551
    C     -3.92920668      2.75535679      1.25777849
    H     -3.15494353      3.39797708      0.89383356
    H     -3.57361014      2.21617800      2.11085318
    H     -4.77901284      3.34297395      1.53604931
    C     -4.33227513      1.76074711      0.15329335
    N     -4.63237792      1.02021500     -0.66904604
