60
Energy:   -252.32913805
    C     -3.43369608      2.30642853      0.61335335
    H     -4.03772812      2.68569619     -0.18426907
    H     -3.79474130      2.68670699      1.54605574
    H     -3.48296233      1.23759036      0.62089674
    C     -1.97379711      2.75157867      0.40808197
    N     -0.88683596      3.08301318      0.25524809
    C      2.71039710      2.96174750      0.57377254
    H      3.51858066      3.65557063      0.67550243
    H      2.90406882      2.09797728      1.17484772
    H      1.80080885      3.42394912      0.89613566
    C      2.57760128      2.54111869     -0.90170591
    N      2.47872877      2.22794143     -2.00026669
    C      3.40741052     -0.87849627     -3.03865797
    H      4.07158518     -1.34604753     -3.73519801
    H      3.96776461     -0.25041481     -2.37804003
    H      2.69105092     -0.28773396     -3.57037963
    C      2.67602551     -1.95979777     -2.22167387
    N      2.13147612     -2.76487589     -1.61339207
    C     -2.08028635     -1.44812183      3.43157368
    H     -2.86034596     -0.99792780      4.00926956
    H     -1.17506143     -0.89229803      3.56013042
    H     -1.92982542     -2.45555213      3.75920881
    C     -2.47698281     -1.44608892      1.94354553
    N     -2.77234136     -1.44457532      0.83564093
    C      0.13375588     -0.22023718     -0.39834096
    H      0.90441205      0.10742252     -1.06439529
    H     -0.77492339      0.29884969     -0.62138779
    H     -0.01791251     -1.27258995     -0.51854683
    C      0.55069582      0.07568256      1.05430924
    N      0.86112655      0.29600826      2.13587334
    C      3.30300992     -2.33676394      1.79698872
    H      4.10637718     -2.75466432      2.36695405
    H      2.92614603     -3.07335718      1.11853231
    H      2.52047994     -2.02681026      2.45765099
    C      3.81542299     -1.12125555      1.00227354
    N      4.19693782     -0.21625431      0.41057197
    C     -2.91364071     -1.69378985     -2.57943536
    H     -1.85954664     -1.87587468     -2.55431592
    H     -3.31641091     -2.05677984     -3.50188511
    H     -3.38262847     -2.20005215     -1.76172633
    C     -3.17606887     -0.18064763     -2.46484005
    N     -3.37145857      0.94595553     -2.37951863
    C      0.06331331      3.06091302      3.80274765
    H      0.81883124      2.34329580      4.04589033
    H      0.07860794      3.85263965      4.52235456
    H      0.25167162      3.46088306      2.82835337
    C     -1.31717821      2.37859178      3.81950732
    N     -2.34501690      1.87057260      3.83198566
    C     -0.83322056     -4.27029204     -0.55326159
    H     -0.37868687     -3.66979826     -1.31333168
    H     -1.89118391     -4.11030711     -0.55744001
    H     -0.62789360     -5.30290436     -0.74418493
    C     -0.26024923     -3.87862236      0.82147428
    N      0.16635396     -3.58700648      1.84502763
    C     -0.46231739      2.45891488     -3.51137498
    H      0.25532110      3.02272020     -4.06996136
    H     -0.36736517      2.69160440     -2.47130828
    H     -1.44842330      2.70770110     -3.84394024
    C     -0.21258477      0.95448886     -3.72570176
    N     -0.02664749     -0.16562470     -3.88527778
