60
Energy:   -252.30669541
    C      1.01989254      1.29960561      2.51887413
    H      0.28089044      1.87717785      3.03383662
    H      1.88462490      1.90409409      2.34074295
    H      1.29224596      0.45470289      3.11625350
    C      0.44694863      0.81434924      1.17430671
    N      0.02036584      0.45305382      0.17321516
    C     -4.09960149     -3.58084653     -1.96442313
    H     -4.10156917     -4.15372775     -1.06070669
    H     -4.78078391     -4.01716608     -2.66479078
    H     -4.40190847     -2.57688550     -1.75094750
    C     -2.68127743     -3.57330518     -2.56433978
    N     -1.62527069     -3.56769031     -3.01100499
    C     -0.30216667     -3.33274887      3.57582545
    H      0.76589895     -3.36760454      3.62987253
    H     -0.62151075     -3.66607238      2.61052038
    H     -0.71834175     -3.96915636      4.32860889
    C     -0.78078584     -1.88689246      3.80391076
    N     -1.13713957     -0.81038663      3.97373064
    C     -3.31908668     -0.14481596      1.42163979
    H     -3.82505572      0.26503613      0.57257162
    H     -2.43508031      0.42472981      1.61924914
    H     -3.96505402     -0.10794254      2.27385200
    C     -2.93346706     -1.60748951      1.13270450
    N     -2.64635573     -2.69651645      0.91757905
    C      4.75978498     -0.81428554      1.12846463
    H      4.60868763     -0.75737491      0.07071658
    H      5.60590135     -1.43585459      1.33495456
    H      4.93489412      0.16715918      1.51705456
    C      3.50744863     -1.41414731      1.79436217
    N      2.57502729     -1.86077167      2.29015315
    C      0.49803046     -2.89066551     -0.45151299
    H      0.66102683     -2.99219756      0.60111401
    H      0.33252305     -3.85634916     -0.88158448
    H     -0.35878336     -2.27278719     -0.62179377
    C      1.73481808     -2.24395445     -1.10245168
    N      2.65566268     -1.76244867     -1.58710513
    C     -2.29827772      3.04021381     -0.65357552
    H     -2.55694503      4.00501724     -0.26997971
    H     -2.02153889      2.39713312      0.15559809
    H     -3.13884009      2.62402615     -1.16849475
    C     -1.11450362      3.17617294     -1.62917482
    N     -0.23312999      3.27740068     -2.35555285
    C      1.94069526      5.26693036     -0.14977635
    H      2.89586537      4.98631260      0.24240208
    H      1.87645139      6.33366597     -0.20313306
    H      1.82171251      4.85301363     -1.12927374
    C      0.82967174      4.73123800      0.77231932
    N      0.00246422      4.33239070      1.45886146
    C     -0.79216884     -0.23737981     -3.21250645
    H     -0.81215138     -1.00754688     -3.95503157
    H     -0.05809498     -0.47547995     -2.47132969
    H     -0.54411047      0.69592913     -3.67326729
    C     -2.17694764     -0.12949575     -2.54741343
    N     -3.20797840     -0.04917116     -2.05222145
    C      2.60163485      1.50203909     -2.21168431
    H      1.63917678      1.05126881     -2.08766500
    H      3.26997150      0.79789436     -2.66157920
    H      2.51387657      2.36287274     -2.84109911
    C      3.15125716      1.92529716     -0.83677779
    N      3.56047595      2.24043203      0.18690261
