60
Energy:   -252.16458448
    C      1.14837773      3.38311510      3.65101924
    H      0.58072393      2.63374952      4.16201881
    H      0.98313245      4.33341060      4.11419475
    H      2.18878030      3.13819156      3.70075913
    C      0.70580180      3.44643314      2.17734445
    N      0.37628390      3.49357630      1.08012659
    C      3.25469433      2.35253281     -0.95669934
    H      4.09396489      2.00535410     -1.52237774
    H      3.04483844      3.36890128     -1.21718876
    H      2.40145299      1.74491136     -1.17504418
    C      3.57683800      2.26392034      0.54662074
    N      3.81668861      2.19794433      1.66591088
    C     -2.68224050     -2.50345155     -0.64139361
    H     -2.38860848     -3.49745705     -0.37562399
    H     -1.81040877     -1.89760655     -0.77466157
    H     -3.24186922     -2.52857857     -1.55303137
    C     -3.55419160     -1.90862543      0.47998196
    N     -4.20339883     -1.46575035      1.31489704
    C     -2.31228642     -2.16042779      4.25256753
    H     -3.17781310     -1.66760416      3.86155779
    H     -1.74022813     -1.46837392      4.83455538
    H     -2.61670779     -2.97952807      4.87006364
    C     -1.45177056     -2.68687446      3.08896693
    N     -0.81107739     -3.07883795      2.22261339
    C      2.49864824     -0.94142466     -3.32950920
    H      3.14686541     -0.37330923     -3.96351199
    H      1.56887097     -0.42443049     -3.21492151
    H      2.32144767     -1.90097055     -3.76856584
    C      3.15892186     -1.12214287     -1.95002390
    N      3.65052558     -1.25669578     -0.92293439
    C     -1.35770133     -0.68347661     -3.76747152
    H     -1.84164136     -1.46935265     -4.30885963
    H     -0.66280845     -1.10514739     -3.07161468
    H     -0.83579966     -0.04776916     -4.45186451
    C     -2.41246587      0.13954606     -3.00477535
    N     -3.19778601      0.75232384     -2.43691338
    C     -2.77074805      1.59266839      1.02185582
    H     -3.81061022      1.40188933      1.18675034
    H     -2.43319104      1.02534642      0.17977498
    H     -2.62533578      2.63539147      0.83085074
    C     -1.96923717      1.18302466      2.27140467
    N     -1.37247589      0.87802628      3.20175058
    C      1.67056259     -3.98955552      0.11185130
    H      1.04503362     -4.55099782      0.77396626
    H      1.97277738     -3.08171038      0.59079024
    H      2.53636671     -4.56719155     -0.13638033
    C      0.88978123     -3.65675200     -1.17314764
    N      0.30845402     -3.40896465     -2.12988776
    C      1.46746768     -0.33766079      1.72537047
    H      1.06464282     -1.17777299      2.25152997
    H      1.37312632      0.54030750      2.32966383
    H      2.50083625     -0.51343279      1.51053869
    C      0.69573574     -0.13916466      0.40755823
    N      0.12114623      0.00862473     -0.57361288
    C     -0.83313488      3.22226731     -2.00396749
    H     -1.75440252      3.38252018     -2.52404933
    H     -0.46442323      4.15666515     -1.63538712
    H     -0.99798594      2.55531540     -1.18366366
    C      0.19939683      2.60669967     -2.96654463
    N      0.96816362      2.14838158     -3.68322706
