60
Energy:   -252.12461165
    C     -1.30473470      2.00109773     -3.34492558
    H     -2.06990510      2.23859388     -4.05415757
    H     -0.58495204      2.79236839     -3.31841594
    H     -1.74134964      1.88347284     -2.37516742
    C     -0.61100992      0.68973215     -3.75804329
    N     -0.09450029     -0.28663913     -4.06562821
    C     -2.18448695     -4.99053675      1.61051369
    H     -2.71513756     -5.87892091      1.88269687
    H     -2.63777150     -4.14501991      2.08436333
    H     -1.16554138     -5.07276037      1.92656477
    C     -2.23487585     -4.81049897      0.08190407
    N     -2.27239269     -4.67645266     -1.05621527
    C      0.05257026     -0.18692576      2.26900201
    H      1.03414315     -0.58714459      2.41474053
    H     -0.67600280     -0.93322730      2.50798821
    H     -0.08454763      0.66213907      2.90554478
    C     -0.11421342      0.24118864      0.79913764
    N     -0.23839145      0.55993927     -0.29524320
    C     -3.52687461      1.62690866      2.26452841
    H     -3.17371737      2.49060232      2.78818231
    H     -2.88258286      0.79751191      2.46919465
    H     -4.52019402      1.39519087      2.58782781
    C     -3.53281813      1.91104764      0.75097969
    N     -3.53724335      2.12260203     -0.37592612
    C     -2.92255471     -1.29342510     -1.59940427
    H     -3.34104489     -2.15794117     -2.07097412
    H     -1.89792986     -1.18963073     -1.88969678
    H     -3.46835936     -0.42366473     -1.90025852
    C     -3.00938500     -1.45035954     -0.06988406
    N     -3.07403410     -1.56720437      1.06891326
    C      0.74176038     -2.78745322     -1.70987622
    H      0.52967086     -1.75761528     -1.90824969
    H     -0.00324000     -3.40056190     -2.17244650
    H      1.70430645     -3.03602968     -2.10562097
    C      0.73390757     -3.02946799     -0.18903199
    N      0.72806079     -3.20965899      0.94330568
    C      3.99701888     -2.21473498      1.95253522
    H      4.47278951     -1.32158481      2.30013452
    H      4.49492239     -3.06756333      2.36445146
    H      2.97248004     -2.21635623      2.26110713
    C      4.07022618     -2.27043494      0.41528501
    N      4.12473233     -2.31190609     -0.72926764
    C      2.99922987      3.69995705      1.47808084
    H      3.97858581      4.11160695      1.60577764
    H      2.37186259      4.01494221      2.28560405
    H      2.58674190      4.04157110      0.55176955
    C      3.08630380      2.16247413      1.46525893
    N      3.15113430      1.01774821      1.45571243
    C     -0.71529051      4.15170217     -0.23077490
    H     -0.51587450      3.32269806     -0.87721562
    H     -0.02329234      4.94082334     -0.43892243
    H     -1.71353465      4.50010844     -0.39515495
    C     -0.56153497      3.70765842      1.23578038
    N     -0.44705698      3.37704766      2.32769745
    C      2.78168844      0.46615986     -2.04009221
    H      2.36608275     -0.06652583     -1.21038259
    H      3.84970169      0.41842832     -1.99572446
    H      2.44255919      0.02422994     -2.95365030
    C      2.33080108      1.93757814     -1.98326935
    N      1.99509494      3.03311593     -1.94096216
