60
Energy:   -252.12018696
    C     -1.50322869     -4.48236912     -0.17703574
    H     -0.94967416     -4.74178000      0.70113484
    H     -1.90629920     -5.36928965     -0.61953459
    H     -2.30176890     -3.82096694      0.08712289
    C     -0.57051055     -3.78443228     -1.18427009
    N      0.12394050     -3.26478658     -1.93420186
    C      2.10421735     -1.54691639      0.36305040
    H      2.91464249     -0.90670682      0.64276989
    H      2.31952618     -2.00333961     -0.58046379
    H      1.97691335     -2.30643713      1.10589697
    C      0.81114750     -0.71828774      0.24927461
    N     -0.15160178     -0.10133605      0.16456336
    C     -4.48507537      1.55007275      0.79226352
    H     -5.39276519      2.11310998      0.72910940
    H     -4.08947802      1.62124261      1.78389686
    H     -4.68455831      0.52468001      0.56058407
    C     -3.46093687      2.11308867     -0.21060905
    N     -2.69841920      2.53227962     -0.95729327
    C     -2.59307849     -1.26385594      2.39427544
    H     -2.82332873     -0.78003414      3.32045117
    H     -3.41839526     -1.87660370      2.09713658
    H     -2.40826391     -0.52534676      1.64237993
    C     -1.33984368     -2.14120163      2.57110034
    N     -0.40675340     -2.79442538      2.70275452
    C      0.65507068      2.33874124     -2.41507779
    H     -0.12457628      2.02367992     -1.75342292
    H      0.31769920      2.25901327     -3.42736383
    H      0.91275125      3.35558134     -2.20404221
    C      1.89187703      1.44345148     -2.21416415
    N      2.81273558      0.77686756     -2.06457481
    C      4.57253258      2.26649545      0.57211707
    H      4.73669880      2.33065471      1.62750005
    H      5.50044479      2.40536156      0.05772984
    H      4.17182229      1.30401813      0.33135214
    C      3.57747751      3.35954050      0.14000837
    N      2.83661378      4.17336222     -0.18171620
    C      2.27020364     -1.97619272     -4.16085637
    H      2.48869787     -1.79762302     -3.12873558
    H      3.16879797     -1.89137472     -4.73551560
    H      1.86556717     -2.96016666     -4.27471462
    C      1.24480340     -0.93908537     -4.65538914
    N      0.48134631     -0.16691180     -5.02359128
    C      0.84598760     -0.15344742      4.65221858
    H      1.12655462      0.21941718      5.61510711
    H      0.96326021     -1.21683603      4.63348640
    H     -0.17601246      0.09616705      4.45700696
    C      1.74431367      0.48113387      3.57429609
    N      2.41315826      0.95360848      2.77173381
    C     -1.94584697     -0.47002535     -2.73814453
    H     -0.91846972     -0.57280061     -2.45737164
    H     -2.18384535      0.56750303     -2.84672967
    H     -2.11379280     -0.97360938     -3.66717435
    C     -2.84024759     -1.09058762     -1.64885577
    N     -3.50616950     -1.55262444     -0.83783077
    C      0.01219342      3.13812571      1.28706859
    H      0.54150013      3.91939431      1.79140377
    H     -0.56232358      3.55554423      0.48669925
    H      0.71128704      2.43041296      0.89297486
    C     -0.92891143      2.43148839      2.28033862
    N     -1.62960677      1.90536478      3.01987331
