60
Energy:   -252.11504907
    C      0.03812160      4.03403717     -0.72748872
    H      0.89115215      4.65429648     -0.54716279
    H     -0.80244184      4.64730502     -0.97699772
    H      0.24665247      3.36768751     -1.53828593
    C     -0.27995085      3.21772407      0.53902730
    N     -0.51677025      2.60994187      1.48200606
    C     -0.35115414     -2.36957820     -3.20623730
    H      0.06248323     -2.82570197     -4.08131182
    H      0.29730522     -1.58705707     -2.87148333
    H     -1.31284868     -1.96142969     -3.43744606
    C     -0.49565849     -3.42677704     -2.09580986
    N     -0.60324855     -4.21390964     -1.26904616
    C     -1.64752124      1.34859307     -4.09997505
    H     -0.79486254      1.78144312     -4.58009397
    H     -2.37267630      1.07650467     -4.83822780
    H     -1.34690565      0.47694185     -3.55706299
    C     -2.26369396      2.37174447     -3.12781642
    N     -2.72246256      3.13352719     -2.40400014
    C     -3.84407546      1.21416351      0.24752988
    H     -4.57132966      0.77546568      0.89833378
    H     -4.30635844      1.98055295     -0.33884950
    H     -3.05382196      1.63897358      0.83056924
    C     -3.26940443      0.13112169     -0.68433579
    N     -2.84153572     -0.67525217     -1.37815213
    C      2.41849381     -3.92202998      0.76457027
    H      3.23470083     -4.60896681      0.84717815
    H      1.49884188     -4.46601247      0.70780343
    H      2.40228373     -3.28258166      1.62232441
    C      2.59070785     -3.07075235     -0.50714854
    N      2.71892903     -2.43693747     -1.45400100
    C      2.84253561      2.81374914      2.99499650
    H      1.79742736      2.68311768      3.18363469
    H      3.21225993      3.62722682      3.58360254
    H      3.36666139      1.91798770      3.25538603
    C      3.06023465      3.12018843      1.50157691
    N      3.22232148      3.34834642      0.38965814
    C      0.07657589     -0.45623539      0.27169354
    H      0.10784505     -1.37865809     -0.26965550
    H      0.02638136      0.36044577     -0.41780735
    H     -0.78655896     -0.44280707      0.90392529
    C      1.34608553     -0.32337314      1.13325777
    N      2.29129315     -0.22445115      1.77473149
    C      3.79687874      0.73705078     -1.62664857
    H      4.36250998      1.63889280     -1.73454880
    H      4.28328714     -0.05467133     -2.15719740
    H      3.72725946      0.48158141     -0.58992892
    C      2.38292528      0.94624573     -2.19986154
    N      1.33017267      1.10200088     -2.62664465
    C     -2.74583901     -3.37947177      1.21716757
    H     -2.68182651     -2.97087255      0.23032956
    H     -3.51206680     -2.87138432      1.76456250
    H     -2.98157599     -4.42145417      1.15716869
    C     -1.39588651     -3.19913930      1.93599192
    N     -0.39078551     -3.06487358      2.47118932
    C     -0.49077355      0.16121450      4.16398378
    H     -0.62789344      0.32982421      5.21168082
    H     -0.04963471      1.02802387      3.71796008
    H      0.15311582     -0.68107012      4.01954628
    C     -1.85505536     -0.11675524      3.50590479
    N     -2.87082518     -0.32371634      3.01593506
