60
Energy:   -252.11176367
    C      0.31923526     -2.22004003      3.35969462
    H      0.39253697     -1.15258797      3.35114239
    H      1.16444427     -2.63150432      3.87078949
    H     -0.57873970     -2.51186215      3.86306319
    C      0.28967907     -2.74416729      1.91193184
    N      0.26767315     -3.13440385      0.83400665
    C     -0.37178537      4.74120348      1.17958227
    H      0.37870790      5.40581531      0.80548182
    H      0.06464529      4.07787689      1.89681668
    H     -1.15021517      5.30837222      1.64570004
    C     -0.95971262      3.92305325      0.01486267
    N     -1.39745118      3.31390321     -0.85232401
    C      3.56581263     -3.23638508      0.06253672
    H      2.79386855     -3.91239910     -0.24079076
    H      3.58051657     -3.16771331      1.13022912
    H      4.51175682     -3.59618425     -0.28478626
    C      3.29421940     -1.84442194     -0.53769302
    N      3.09200589     -0.80804211     -0.98459133
    C      1.81897535      2.33744439     -2.48414020
    H      2.28391702      2.77387392     -3.34336001
    H      0.75586445      2.36176242     -2.60289598
    H      2.14309737      1.32306630     -2.37982765
    C      2.21339917      3.13425989     -1.22671629
    N      2.50706564      3.72752526     -0.29050703
    C     -2.91531695      0.93459170     -3.08019157
    H     -2.62136009      0.00992740     -3.53128521
    H     -2.05770785      1.56411861     -2.96572939
    H     -3.63527926      1.42250790     -3.70348214
    C     -3.53650468      0.65713383     -1.69861893
    N     -3.99900717      0.45055383     -0.66997531
    C      3.79538288      1.41602213      1.83622691
    H      3.00245205      2.06265546      2.14931828
    H      3.81772438      1.37073443      0.76741964
    H      4.72857862      1.79561936      2.19671374
    C      3.56135081      0.00419520      2.40506231
    N      3.38710330     -1.04697412      2.82858613
    C     -3.39247292     -3.00811541      0.23496819
    H     -3.98659544     -2.16952954      0.53278080
    H     -2.58748385     -3.13888074      0.92763847
    H     -3.99955879     -3.88914187      0.22321184
    C     -2.82221226     -2.75882792     -1.17366893
    N     -2.39762728     -2.57322206     -2.22246329
    C      0.79181528     -2.71589115     -3.03204357
    H      1.82558617     -2.92473781     -3.21260101
    H      0.18730949     -3.41778136     -3.56760120
    H      0.58922705     -2.79696500     -1.98453026
    C      0.46556944     -1.28842257     -3.50901014
    N      0.22266459     -0.22560733     -3.86413343
    C     -0.32176140      0.00200111     -0.31033539
    H      0.44610370     -0.70082252     -0.55796879
    H     -0.43999233      0.69886700     -1.11364010
    H     -1.24320475     -0.51795920     -0.15070288
    C      0.06944130      0.75893131      0.97248071
    N      0.36070949      1.32250025      1.92759559
    C     -3.13327966      1.71885482      2.36534015
    H     -2.95508955      1.96297718      1.33891298
    H     -2.47484258      2.28883513      2.98701704
    H     -4.14794403      1.94846390      2.61560993
    C     -2.87703873      0.21668741      2.58767699
    N     -2.68625571     -0.90174450      2.75321688
