60
Energy:   -252.10989688
    C     -0.54717553      5.20803198     -1.29675388
    H      0.48443809      4.97590329     -1.46042974
    H     -0.73529513      6.22062498     -1.58686683
    H     -1.15757188      4.55064663     -1.87998616
    C     -0.88266253      5.03088996      0.19578396
    N     -1.13244785      4.89899968      1.30704621
    C      1.69725701     -2.74440230      0.51555806
    H      2.60740999     -2.82829610     -0.04075442
    H      1.75538154     -3.35919477      1.38937204
    H      1.54926764     -1.72519254      0.80574711
    C      0.51665321     -3.20571738     -0.35906360
    N     -0.36235999     -3.54918742     -1.01025919
    C      0.59056446      1.65104355     -2.25333016
    H      1.29919784      2.44705907     -2.15794560
    H     -0.33576290      2.04032576     -2.62112911
    H      0.96642643      0.91895740     -2.93719911
    C      0.36292040      0.99875649     -0.87699452
    N      0.19342905      0.51309913      0.14774992
    C     -2.74892399     -1.21024290     -1.28915365
    H     -2.11689770     -0.97832360     -0.45749483
    H     -3.01787781     -2.24532560     -1.25499613
    H     -3.63360611     -0.61014963     -1.24305902
    C     -1.99819468     -0.91797319     -2.60162610
    N     -1.43924258     -0.70036511     -3.57882149
    C      4.18031443      0.65174700     -0.33671790
    H      4.58152597     -0.23165701     -0.78785738
    H      4.94367263      1.39900450     -0.27515824
    H      3.36919115      1.01854217     -0.93038398
    C      3.67161483      0.31978478      1.07842372
    N      3.29286485      0.07262381      2.13206098
    C      0.05945573     -1.00302510      3.36000700
    H      0.51353686     -1.96596614      3.46703524
    H     -0.03700786     -0.54523471      4.32230728
    H      0.67029512     -0.38842895      2.73227624
    C     -1.33440077     -1.16054505      2.72443519
    N     -2.37219029     -1.27782582      2.25122310
    C      1.05738361     -2.75746473     -4.23991229
    H      0.26447775     -3.23554033     -3.70358757
    H      1.66704725     -3.49954501     -4.71163910
    H      0.64434979     -2.10929878     -4.98434701
    C      1.91557689     -1.93422532     -3.26145371
    N      2.55454080     -1.32128617     -2.53294683
    C      1.33674290      2.90067465      2.59301833
    H      0.58142272      2.15395830      2.46337929
    H      0.90926397      3.76299795      3.06052169
    H      2.12020841      2.51221767      3.20960739
    C      1.91148581      3.29337546      1.21931652
    N      2.33940803      3.58575906      0.19653308
    C     -2.70405862     -4.70014813      1.34557062
    H     -2.47051065     -4.86135626      0.31388875
    H     -3.26410473     -3.79409412      1.44712637
    H     -3.28412397     -5.52101981      1.71243976
    C     -1.39928253     -4.59072762      2.15624103
    N     -0.42781743     -4.50925907      2.75982200
    C     -2.89174907      1.98871637      1.48134433
    H     -1.93130203      1.68897299      1.84548110
    H     -3.61112714      1.22896122      1.70532290
    H     -3.18186204      2.90459363      1.95240949
    C     -2.82116222      2.19542397     -0.04308653
    N     -2.76860710      2.34932718     -1.17809461
