60
Energy:   -252.10423711
    C      0.08320058      3.82499951      0.47648006
    H     -0.81408316      4.24714614      0.07451701
    H      0.56550897      4.54438613      1.10477983
    H     -0.15802639      2.95485175      1.05054584
    C      1.02764307      3.43440660     -0.67550326
    N      1.73082343      3.14359242     -1.53320720
    C      2.89275825     -4.24095811     -0.14215468
    H      3.75665117     -4.75157470     -0.51344956
    H      2.08067800     -4.36957086     -0.82690539
    H      2.62250968     -4.64416786      0.81141058
    C      3.20714319     -2.74062240      0.00534066
    N      3.44121706     -1.62355427      0.11515764
    C      1.74155214     -0.10062989     -2.59189674
    H      1.70475639      0.31490374     -1.60656529
    H      1.14478724      0.49348458     -3.25204729
    H      2.75415924     -0.10987682     -2.93749830
    C      1.19600763     -1.54046231     -2.56250620
    N      0.78982494     -2.61248299     -2.54062360
    C     -3.39289731     -0.05007838      1.76905331
    H     -3.70487582     -0.16564896      2.78601596
    H     -2.50005861     -0.61601764      1.60337015
    H     -4.16464919     -0.40238061      1.11699405
    C     -3.11815549      1.43784083      1.48232458
    N     -2.91359772      2.54566431      1.26884200
    C      4.10420064      1.62844559      0.55803494
    H      4.71067208      2.43774945      0.20857845
    H      3.51716586      1.24732278     -0.25130717
    H      4.73241823      0.85104491      0.93999035
    C      3.17206100      2.13106169      1.67611041
    N      2.47804067      2.50528223      2.50856842
    C      1.16787497     -0.76579737      2.72163768
    H      2.05148180     -1.30551710      2.45174554
    H      0.49178030     -1.42028315      3.23099361
    H      1.42958895      0.04789199      3.36531036
    C      0.49253888     -0.21813759      1.45057910
    N     -0.01027953      0.18962001      0.50421820
    C     -2.28259987     -2.57082439     -4.32012782
    H     -1.55388776     -3.26975632     -3.96604731
    H     -2.73262659     -2.94730127     -5.21491282
    H     -3.03600884     -2.43189078     -3.57315294
    C     -1.59935158     -1.22299777     -4.61700349
    N     -1.09064217     -0.21947958     -4.83804093
    C     -0.71029147      3.35369678      4.10921068
    H      0.32338673      3.45597058      3.85240407
    H     -0.89775420      3.85004870      5.03839935
    H     -1.31348342      3.79280334      3.34224003
    C     -1.06006428      1.86013538      4.24534780
    N     -1.32048603      0.74811102      4.34670807
    C     -1.69573507     -2.94353250     -0.39039243
    H     -2.68151633     -2.87719426      0.02038091
    H     -1.69059854     -3.65133212     -1.19282149
    H     -1.39764750     -1.98428230     -0.75901411
    C     -0.71336127     -3.40091163      0.70384065
    N      0.01806069     -3.74145119      1.51854692
    C     -1.83005853      1.72869227     -2.10894666
    H     -1.84841788      1.98755492     -3.14699928
    H     -0.83066881      1.47621198     -1.82193975
    H     -2.16858123      2.56089108     -1.52778694
    C     -2.75479094      0.52176013     -1.86443741
    N     -3.44329626     -0.37685571     -1.68238915
