60
Energy:   -253.91204359
    C      0.51307215      1.52676855     -3.26270070
    H      1.26249110      2.01108899     -3.85321330
    H     -0.25043489      1.13841892     -3.90390321
    H      0.95707226      0.72494484     -2.71057595
    C     -0.10568089      2.54267087     -2.28459684
    N     -0.56637065      3.29905632     -1.55635406
    C     -0.18220011     -2.28287145     -3.39645682
    H     -0.76834851     -1.49214981     -2.97682660
    H     -0.53381066     -3.22295260     -3.02562459
    H     -0.26993195     -2.26469899     -4.46269881
    C      1.29374264     -2.09405982     -2.99953975
    N      2.39264910     -1.95348099     -2.70401694
    C      3.44395353      0.15072602     -0.15209206
    H      2.43972326     -0.04039603      0.16396823
    H      4.04783783      0.38355563      0.69997203
    H      3.83549157     -0.71715859     -0.64032702
    C      3.45663042      1.33980547     -1.13062635
    N      3.46606893      2.22512918     -1.85918960
    C     -3.32948869     -2.57545701     -1.03531114
    H     -2.33156241     -2.44275139     -1.39784740
    H     -4.02385185     -2.40372638     -1.83109220
    H     -3.44618795     -3.57416424     -0.66943652
    C     -3.59843345     -1.57622400      0.10521598
    N     -3.79867505     -0.83224960      0.95439026
    C      1.88232631      0.94096402      4.46999037
    H      2.55909988      1.69928123      4.13557635
    H      2.18103465      0.59827048      5.43861494
    H      0.89283765      1.34457457      4.52393304
    C      1.90248560     -0.23812292      3.47956239
    N      1.91749510     -1.11600675      2.74214375
    C     -1.40657336     -2.57453443      2.80813040
    H     -2.39112403     -2.99347510      2.80113906
    H     -0.71393168     -3.29765240      3.18528685
    H     -1.12864114     -2.30012722      1.81196101
    C     -1.38645725     -1.32576275      3.70911022
    N     -1.37147988     -0.39599547      4.37993064
    C     -3.84311259      2.09077272     -1.13277576
    H     -4.86457403      2.28576008     -1.38476119
    H     -3.28348159      3.00141745     -1.18215616
    H     -3.79012879      1.69291659     -0.14090767
    C     -3.25467803      1.07210264     -2.12658461
    N     -2.81656176      0.31365646     -2.86652047
    C      1.97681228      4.90608097     -0.05680609
    H      0.97249804      5.26205856     -0.15444337
    H      2.33774359      4.58997623     -1.01320845
    H      2.59904074      5.69208880      0.31725612
    C      2.00725898      3.71742805      0.92185484
    N      2.02992793      2.83242191      1.65051239
    C      1.84631187     -3.42273966      0.32819885
    H      1.85981011     -2.35709221      0.23273428
    H      2.57444183     -3.84903521     -0.32982696
    H      2.07598381     -3.69334583      1.33761561
    C      0.44836325     -3.95345883     -0.04014450
    N     -0.59247304     -4.34860338     -0.31439286
    C     -1.00208536      1.35802501      1.41474887
    H     -1.98156057      1.12754933      1.77862998
    H     -1.01394183      2.31783941      0.94197531
    H     -0.31193052      1.37164143      2.23230619
    C     -0.56861510      0.28872310      0.39479938
    N     -0.24587679     -0.50742077     -0.36459938
