60
Energy:   -252.10185370
    C     -2.67874928      3.69998187      0.12568217
    H     -2.19138062      4.28936805     -0.62264657
    H     -3.54409061      4.21934194      0.48113765
    H     -2.97388893      2.76170605     -0.29554243
    C     -1.70996898      3.45463144      1.29737663
    N     -0.98866802      3.27195689      2.16975642
    C      2.74692058     -1.97728304     -2.45132662
    H      3.60732774     -2.53348000     -2.14270930
    H      2.77211214     -1.84086401     -3.51229520
    H      1.86058087     -2.51253055     -2.18149128
    C      2.74798707     -0.60275790     -1.75686317
    N      2.74878111      0.42063855     -1.23980356
    C     -3.93463427     -1.41079647      0.07011133
    H     -3.29505077     -2.12690123      0.54236879
    H     -3.57049221     -1.20166796     -0.91404563
    H     -4.92697336     -1.80595158      0.00674994
    C     -3.95102229     -0.11239939      0.89805845
    N     -3.96322392      0.85431626      1.51450271
    C      4.59074712     -0.15725375      1.67043676
    H      4.80468919     -1.14299256      1.31343820
    H      5.35499605      0.14812984      2.35422294
    H      4.55895468      0.52215274      0.84442517
    C      3.22863823     -0.15588830      2.38894739
    N      2.21448625     -0.15487166      2.92391120
    C     -0.28320382      0.29850565      0.37005034
    H      0.21995528      0.25171864      1.31320573
    H     -1.26632569      0.69709976      0.50966848
    H      0.26633596      0.92993667     -0.29643296
    C     -0.38334288     -1.11662476     -0.22909746
    N     -0.45790096     -2.17025368     -0.67519023
    C      0.99933888     -3.55866989      2.22188774
    H      0.89902170     -2.73046844      2.89190192
    H      1.13077154     -4.45902574      2.78490096
    H      0.11812901     -3.63958044      1.62037153
    C      2.22284148     -3.33837038      1.31298208
    N      3.13379479     -3.17434738      0.63626050
    C     -0.10816834      1.82302842     -3.54737792
    H     -0.03372408      1.38408564     -4.52035658
    H      0.75909006      1.56930630     -2.97432728
    H     -0.17562894      2.88685452     -3.64023370
    C     -1.36642564      1.28883279     -2.83813635
    N     -2.30325539      0.89109986     -2.31007377
    C     -2.14725875     -2.55262111     -3.56657563
    H     -2.79574030     -1.78437074     -3.20029262
    H     -1.91861338     -3.23421957     -2.77408341
    H     -2.63217552     -3.07967932     -4.36153755
    C     -0.84508854     -1.91876411     -4.09019576
    N      0.12443638     -1.44682876     -4.48005474
    C      2.28936224      3.16114019      0.89436662
    H      1.74314788      2.56208623      1.59271067
    H      2.66611411      4.03173042      1.38937144
    H      3.10617300      2.59358892      0.49989886
    C      1.35766296      3.58718129     -0.25542703
    N      0.66397049      3.90438824     -1.11150067
    C     -1.32152505      0.53519904      4.12422187
    H     -2.06914218      1.24128046      3.82855679
    H     -0.35685843      0.89321839      3.83072647
    H     -1.34799766      0.41158771      5.18672765
    C     -1.59581378     -0.81840512      3.44295725
    N     -1.80003421     -1.82622494      2.93572478
