60
Energy:   -252.09541215
    C      0.39440487      2.20179393     -3.57569018
    H      0.31696239      3.26896401     -3.56855879
    H      0.61481074      1.86680432     -4.56770949
    H      1.17783070      1.89660978     -2.91387018
    C     -0.93890545      1.58723731     -3.11071304
    N     -1.93161560      1.12967198     -2.76451643
    C      3.38210814     -2.41702428     -1.80245952
    H      3.31744340     -1.37465952     -2.03525635
    H      2.47052039     -2.90225606     -2.08256124
    H      4.19797194     -2.85269182     -2.34047359
    C      3.61294836     -2.59184401     -0.28992825
    N      3.78481940     -2.72200525      0.83622004
    C     -0.26694488      0.05991448      0.00684171
    H     -0.63466864     -0.58053815     -0.76743205
    H     -0.84375222      0.96087294      0.02843444
    H     -0.34809194     -0.43823464      0.95032552
    C      1.20926756      0.40194379     -0.26777217
    N      2.30837483      0.65660015     -0.47223468
    C     -3.75275637     -1.61318344     -0.66695946
    H     -3.80319689     -2.47575302     -1.29809310
    H     -3.15588992     -0.86064172     -1.13847879
    H     -4.73956829     -1.23402803     -0.50160381
    C     -3.11892863     -2.00052665      0.68205041
    N     -2.64701507     -2.28892127      1.68644958
    C      4.00185180      0.07905669      2.61249185
    H      4.12192680      0.32485861      1.57805307
    H      4.56736273     -0.80085918      2.83797919
    H      4.35090179      0.89149801      3.21498856
    C      2.51274683     -0.17760189      2.90963286
    N      1.40404050     -0.36869587      3.13086784
    C     -1.98066491      0.39373744      3.66137498
    H     -2.12689380      0.54372540      4.71067042
    H     -1.33481907     -0.44539426      3.50762118
    H     -2.92445576      0.20801146      3.19269195
    C     -1.34138539      1.65289806      3.04701660
    N     -0.86541273      2.59040038      2.58959886
    C     -1.41646623     -2.38782273     -3.55445483
    H     -1.58938505     -2.98265039     -4.42691074
    H     -2.19007689     -1.65418614     -3.46388446
    H     -1.41764602     -3.01617937     -2.68839152
    C     -0.05247088     -1.68323875     -3.67560808
    N      0.96308565     -1.15864395     -3.76581219
    C      2.05350683      3.60299455      1.28584063
    H      1.98009742      4.42585673      1.96584731
    H      3.06141123      3.51742030      0.93697839
    H      1.77150240      2.70035067      1.78644687
    C      1.11440652      3.84098396      0.08873928
    N      0.41520366      4.01817789     -0.80255710
    C      0.54067319     -3.52234817      2.11405480
    H     -0.05271374     -2.79355437      2.62557386
    H      1.57543434     -3.35342850      2.32767733
    H      0.26391186     -4.50220130      2.44297743
    C      0.30375323     -3.40412823      0.59698757
    N      0.12735555     -3.31610812     -0.53253794
    C     -2.87638618      3.63126172     -0.23903498
    H     -3.66698499      4.33880513     -0.37772895
    H     -2.40206914      3.43773497     -1.17843364
    H     -2.15856095      4.02860513      0.44780143
    C     -3.45430959      2.31958217      0.32408250
    N     -3.88459985      1.34297713      0.74334905
