60
Energy:   -252.04182461
    C      0.64775039      2.53198469     -0.66529091
    H      0.21105674      2.83157649     -1.59504549
    H      1.70612022      2.42974419     -0.78487049
    H      0.44284503      3.27201236      0.07987480
    C      0.04791089      1.18285728     -0.22751493
    N     -0.39869689      0.17837060      0.09842919
    C      4.94390180      0.69867306      0.77015302
    H      5.26325084      0.87010926     -0.23658726
    H      4.44752523     -0.24728927      0.83068955
    H      5.79480900      0.69712400      1.41888535
    C      3.97401712      1.81564315      1.19829027
    N      3.25189388      2.64727815      1.51705792
    C      0.49634866     -3.80266667      3.14302392
    H      1.30359307     -3.40689504      2.56283304
    H      0.03896823     -4.61159955      2.61261858
    H      0.87118387     -4.15741127      4.08033600
    C     -0.54667830     -2.69745431      3.39242400
    N     -1.32325928     -1.87457347      3.57811370
    C      0.77953414      1.09678445      3.40626662
    H      1.16749033      1.58758921      4.27431089
    H     -0.19169686      0.70356095      3.62302620
    H      0.70879960      1.79841193      2.60152157
    C      1.72082035     -0.05348071      3.00319058
    N      2.42165073     -0.90990542      2.70308214
    C     -2.98893592      3.47143850     -1.69767883
    H     -2.47852039      3.38855468     -2.63443197
    H     -2.31317709      3.84060692     -0.95473619
    H     -3.81208084      4.14756244     -1.79861423
    C     -3.51142788      2.08628717     -1.27346433
    N     -3.90044689      1.05497904     -0.95761735
    C     -3.04332966      1.00087422      2.46778679
    H     -3.21825569      1.02483044      3.52311951
    H     -2.39181710      0.18530748      2.23266687
    H     -3.97368370      0.87347664      1.95484400
    C     -2.39024248      2.32356125      2.02554685
    N     -1.90398940      3.30836186      1.69627912
    C      1.89581430     -2.27144671     -0.36014384
    H      1.03428371     -2.19809974      0.27016201
    H      2.51339021     -1.40866978     -0.22188663
    H      2.44973020     -3.15097212     -0.10615304
    C      1.44970103     -2.35290638     -1.83185960
    N      1.11754942     -2.41355680     -2.92761887
    C     -1.91312138     -1.09577028     -2.94738319
    H     -1.72108304     -1.78921631     -3.73931378
    H     -2.96863045     -1.01660490     -2.79075456
    H     -1.44421904     -1.44082775     -2.04962763
    C     -1.34523682      0.28496191     -3.32512085
    N     -0.92242096      1.31297979     -3.60636371
    C      2.21009611      0.50060545     -4.60931578
    H      1.64712154      1.38863995     -4.80769553
    H      1.57214463     -0.35368670     -4.69932652
    H      3.01242266      0.42231665     -5.31290804
    C      2.78378244      0.56471912     -3.18159962
    N      3.21091799      0.61245467     -2.11860005
    C     -3.12832992     -2.13251417      0.46664796
    H     -3.96606680     -2.41379121     -0.13665987
    H     -2.79092438     -1.15930147      0.17696945
    H     -3.41932924     -2.11731478      1.49620488
    C     -1.98940330     -3.15026186      0.27008805
    N     -1.14142066     -3.90802127      0.12374026
