60
Energy:   -251.99400483
    C     -3.00311520     -0.23299419     -2.86140123
    H     -3.82628821     -0.23805705     -3.54496595
    H     -2.34583999     -1.04618080     -3.08859263
    H     -2.47119638      0.69113923     -2.95050155
    C     -3.52991278     -0.38538822     -1.42235280
    N     -3.92213753     -0.49885250     -0.35091584
    C      1.46601339      2.43935302      3.94602104
    H      2.38048839      2.26467480      3.41864720
    H      1.66896233      2.52547854      4.99306125
    H      1.01856787      3.34522065      3.59374921
    C      0.50174356      1.26302841      3.70509759
    N     -0.21619916      0.38720127      3.52571914
    C     -0.39834070     -0.49693087      0.26235739
    H     -0.86579950     -1.42791056      0.50660986
    H     -1.11308179      0.29461028      0.34899965
    H      0.41452603     -0.31869451      0.93494832
    C      0.13322388     -0.55277082     -1.18191440
    N      0.52899788     -0.59434620     -2.25724039
    C      3.91244356      0.49168657     -1.34517690
    H      4.37541759      1.35935712     -1.76672530
    H      3.20126975      0.09429536     -2.03887073
    H      4.65928603     -0.24603669     -1.13807836
    C      3.19476957      0.87660658     -0.03812655
    N      2.66042866      1.16319702      0.93503185
    C      0.21764102      1.94047687     -4.44357220
    H      0.20915991      2.42763224     -5.39620429
    H     -0.70942014      2.12292615     -3.94140794
    H      0.34674145      0.88743396     -4.58261464
    C      1.37831652      2.49234233     -3.59511660
    N      2.24249218      2.90323124     -2.96340284
    C     -3.19863816      1.85948257      1.97685767
    H     -2.75992581      0.91791901      2.23354758
    H     -3.37830164      1.89367810      0.92260400
    H     -4.12447618      1.97614952      2.50041461
    C     -2.23895851      2.99750308      2.37122335
    N     -1.52443339      3.84481108      2.66484653
    C     -3.05843219     -3.69564490      0.89129001
    H     -2.45975018     -4.35932172      1.47951880
    H     -4.05187861     -4.08546153      0.81378973
    H     -3.08826925     -2.73347607      1.35845165
    C     -2.44732239     -3.56420547     -0.51614328
    N     -1.99232336     -3.46634283     -1.56404135
    C      0.63401792      3.81136741      0.07802452
    H      1.50294456      3.85771230     -0.54464621
    H      0.86459835      3.27132458      0.97249950
    H      0.32287679      4.80349092      0.33057400
    C     -0.50064171      3.09400593     -0.67665424
    N     -1.34544738      2.55989770     -1.23854688
    C      1.35307379     -4.04470005     -1.56697627
    H      0.65094697     -4.44336415     -0.86484733
    H      1.83356902     -4.84764143     -2.08592575
    H      0.84014586     -3.42204412     -2.26990133
    C      2.41029225     -3.21144400     -0.81892983
    N      3.19743945     -2.59104700     -0.26197525
    C      2.11566258     -2.09012004      2.97196568
    H      1.77449288     -1.71099009      3.91258457
    H      2.33170833     -1.27334173      2.31538627
    H      3.00151979     -2.67125002      3.12177904
    C      1.02077341     -2.97494277      2.34754079
    N      0.20557865     -3.63373351      1.88262807
