60
Energy:   -251.94584574
    C      2.09759897      2.62699649     -4.02994645
    H      1.95559773      3.52815547     -4.58909609
    H      3.11136127      2.30013486     -4.13166458
    H      1.88383183      2.81032418     -2.99767049
    C      1.15057794      1.53658084     -4.56449754
    N      0.44547773      0.72471682     -4.96249513
    C      0.76419992     -1.81019521     -2.78006513
    H     -0.21153458     -2.06020366     -3.14108888
    H      1.45193254     -1.78467347     -3.59937678
    H      0.73495703     -0.84996076     -2.30890301
    C      1.22079606     -2.86912386     -1.75938394
    N      1.56075264     -3.65754437     -0.99944040
    C      3.66678404     -0.95533195      0.38682398
    H      4.59397990     -0.68486823      0.84732087
    H      3.67258985     -2.00113165      0.16061969
    H      2.86001726     -0.73958079      1.05576185
    C      3.48509985     -0.14994671     -0.91315505
    N      3.34982772      0.44969921     -1.88104853
    C     -2.40130169     -0.19503190      1.17648539
    H     -3.04032042     -0.27387808      0.32188693
    H     -2.51273390      0.77369458      1.61699756
    H     -2.66801775     -0.94488262      1.89166755
    C     -0.93733896     -0.39657015      0.74313165
    N      0.15264783     -0.54662454      0.42048008
    C     -0.40682125      0.45008967      4.55085749
    H     -1.12305676     -0.12091661      3.99781255
    H     -0.67790209      1.48482343      4.52364883
    H     -0.38890137      0.11265803      5.56610025
    C      0.98838749      0.26831775      3.92479716
    N      2.02718382      0.13298029      3.45866679
    C      1.49094426     -3.21798837      2.48505669
    H      2.14925351     -2.76940954      3.19941384
    H      1.65434949     -2.77757925      1.52368390
    H      1.68376269     -4.26919465      2.43323470
    C      0.03077267     -2.98451485      2.91516022
    N     -1.05639144     -2.81068320      3.23539185
    C     -2.16026571      0.68685644     -2.60902680
    H     -1.78483499     -0.20892757     -2.16011370
    H     -2.11401107      0.59839500     -3.67435969
    H     -3.17563758      0.83846024     -2.30747194
    C     -1.30579939      1.88524010     -2.15585584
    N     -0.66961038      2.77749121     -1.81844947
    C      1.65690280      2.54389588      0.65113673
    H      1.44373071      1.94673895     -0.21075736
    H      2.40325743      2.05915610      1.24517477
    H      2.01557153      3.50300296      0.34070246
    C      0.37330135      2.72062148      1.48344401
    N     -0.58239827      2.85220172      2.10313460
    C     -1.65059628     -4.75486607      0.27136040
    H     -2.02817967     -5.66273753     -0.15065902
    H     -2.06156161     -4.61841751      1.24982265
    H     -0.58395072     -4.80854902      0.33681643
    C     -2.05084855     -3.56732833     -0.62371068
    N     -2.34885456     -2.68315250     -1.29013178
    C     -2.76516423      4.70868379      0.35527198
    H     -1.83539018      4.70980485     -0.17427420
    H     -2.57751142      4.78923681      1.40560370
    H     -3.35935692      5.53868074      0.03443059
    C     -3.51823162      3.39655667      0.06750134
    N     -4.07892452      2.41961839     -0.14675698
