60
Energy:   -253.68052608
    C      3.26968049     -2.24387221      0.34859391
    H      2.36482197     -1.95566833     -0.14442716
    H      3.44368752     -3.28808392      0.19289370
    H      4.08810438     -1.68240336     -0.05119872
    C      3.14364145     -1.96388103      1.85767280
    N      3.04979965     -1.75541487      2.98125062
    C     -0.15738245     -4.28400864     -2.15906855
    H     -0.46909221     -5.30233775     -2.26271708
    H      0.76580371     -4.13879175     -2.68016208
    H     -0.90479070     -3.63853960     -2.57095412
    C      0.03825814     -3.95637202     -0.66709703
    N      0.18392146     -3.71243167      0.44374358
    C     -1.06865357     -0.77165350     -3.68656039
    H     -0.83591101     -1.21208624     -2.73959150
    H     -0.57841747     -1.31877786     -4.46452093
    H     -2.12680721     -0.80016199     -3.84275647
    C     -0.58625127      0.69072401     -3.70500054
    N     -0.22708084      1.77953054     -3.71873006
    C     -3.14937242     -2.83157269      1.32064800
    H     -3.74043381     -3.71139705      1.46712563
    H     -3.59119534     -2.01296755      1.84939863
    H     -2.15935515     -3.00152992      1.68926626
    C     -3.08767583     -2.49885080     -0.18171337
    N     -3.04173992     -2.25112423     -1.30028970
    C      3.20001378      1.73743405      3.34604601
    H      2.71180865      2.67354749      3.51996426
    H      4.18027132      1.76141388      3.77432069
    H      2.63287569      0.95017355      3.79712736
    C      3.30808121      1.48868361      1.83011572
    N      3.38854232      1.30347760      0.70143671
    C     -0.12427189     -0.63714935      2.21278399
    H      0.03242160     -1.68301583      2.37560481
    H     -1.09049054     -0.35992471      2.57948157
    H      0.62743115     -0.07899136      2.73076207
    C     -0.04105113     -0.33420938      0.70516942
    N      0.02091050     -0.10865681     -0.41731815
    C     -3.17920586      1.32745315     -1.18305039
    H     -3.71168020      2.23825704     -1.36139703
    H     -3.60233141      0.54470894     -1.77733599
    H     -2.15032377      1.45846363     -1.44598953
    C     -3.28467764      0.95458509      0.30740092
    N     -3.36320618      0.67696787      1.41710967
    C     -2.52987918      3.45744492      3.10950506
    H     -2.56827932      4.27053304      3.80399288
    H     -3.10197428      2.63679083      3.48915380
    H     -2.93576049      3.77100106      2.17044064
    C     -1.06705415      3.01704703      2.91510183
    N      0.02208558      2.68915078      2.77035979
    C      2.83106603      0.63284313     -2.53802223
    H      2.16516419      1.00849108     -1.78944789
    H      2.74072223      1.22438414     -3.42504890
    H      3.83727805      0.68205662     -2.17744702
    C      2.47130064     -0.83001921     -2.85771370
    N      2.20343895     -1.91918672     -3.09573853
    C      0.78757552      3.39189907     -0.65447540
    H      0.94915107      3.22311202     -1.69865185
    H      0.95799311      2.48326253     -0.11573931
    H      1.46308642      4.14508873     -0.30620905
    C     -0.66247975      3.85855440     -0.42826193
    N     -1.74211180      4.20600050     -0.25983571
