60
Energy:   -251.92925827
    C     -2.38473169      1.12913910     -3.74500476
    H     -3.43811292      1.00576955     -3.60334277
    H     -2.20082889      1.53552262     -4.71759475
    H     -2.00051120      1.79575121     -3.00143096
    C     -1.68632174     -0.23761500     -3.61927980
    N     -1.16632378     -1.25522556     -3.52567184
    C     -1.22352266     -4.37094014     -1.68880764
    H     -0.29490265     -4.74886820     -1.31499561
    H     -1.03686555     -3.72833147     -2.52374016
    H     -1.84213200     -5.18728615     -1.99832465
    C     -1.93835427     -3.57695297     -0.57966376
    N     -2.47057889     -2.98579343      0.24614427
    C     -4.47258602     -0.52108068      1.43635086
    H     -4.77095557     -1.50504033      1.14021036
    H     -5.25388820     -0.06929417      2.01111597
    H     -3.58330124     -0.58106183      2.02835925
    C     -4.19857062      0.33118035      0.18328793
    N     -3.99455369      0.96572742     -0.74967437
    C      0.02042003     -2.46932399      2.55844059
    H     -0.85041715     -1.84867138      2.52192862
    H     -0.23237452     -3.41327178      2.99428066
    H      0.39119389     -2.62233936      1.56646673
    C      1.10397453     -1.78379162      3.41140895
    N      1.91073010     -1.27338162      4.04648268
    C      4.28748222     -1.22597860      1.36724375
    H      5.19764466     -1.65925611      1.72609624
    H      3.55062236     -1.99248030      1.24719465
    H      3.93610559     -0.50050618      2.07089375
    C      4.54377620     -0.54333016      0.01081295
    N      4.73459872     -0.03506737     -0.99911143
    C      0.74798989      2.03174273      3.98782638
    H      0.54655505      2.98020843      4.44030510
    H      1.45838611      2.15724341      3.19758219
    H      1.14610779      1.36343286      4.72251214
    C     -0.55752850      1.44789954      3.41655688
    N     -1.52954629      1.01320174      2.99122076
    C     -0.73154403     -0.11080869     -0.22406724
    H     -1.10505604      0.68564413     -0.83320750
    H     -1.43952469     -0.33222677      0.54705954
    H     -0.57872017     -0.98049355     -0.82837858
    C      0.60504724      0.31326797      0.41255099
    N      1.60020019      0.62901233      0.88654221
    C      2.92979857      3.07002955     -1.17368028
    H      3.73138045      2.48572806     -1.57487654
    H      2.85933118      2.90249176     -0.11923041
    H      3.11730821      4.10716947     -1.35828802
    C      1.60766416      2.65940918     -1.84818122
    N      0.62327500      2.35368364     -2.35037783
    C      2.17343166     -1.18346264     -2.94391788
    H      1.78083915     -0.20807615     -2.74544245
    H      1.70070168     -1.58785361     -3.81448861
    H      3.22840249     -1.11639623     -3.10956133
    C      1.90047936     -2.10179646     -1.73819816
    N      1.69725396     -2.78553773     -0.84048503
    C     -1.82548255      3.46024502      0.20038450
    H     -1.69566761      3.10313477     -0.79987573
    H     -2.47241564      4.31249608      0.19369121
    H     -2.25882271      2.68822720      0.80130370
    C     -0.45753067      3.85874163      0.78477143
    N      0.56097169      4.15544047      1.21987407
