60
Energy:   -251.86790107
    C      1.92150469      1.22150774      3.90929274
    H      0.98783128      1.73565609      3.81545453
    H      2.69235229      1.79258286      3.43540848
    H      2.15674525      1.09554833      4.94548538
    C      1.81728142     -0.15911786      3.23504467
    N      1.73968245     -1.18705638      2.73303634
    C      1.92657990     -4.04698107      0.63205554
    H      2.12793910     -4.84944537      1.31058756
    H      2.44211537     -3.16741533      0.95684220
    H      2.26211977     -4.31572303     -0.34778621
    C      0.41185819     -3.77116150      0.59826622
    N     -0.71592097     -3.56580130      0.57310855
    C     -0.00655420     -0.20412245     -0.32372122
    H      0.67953646     -0.11319775      0.49231339
    H      0.20479925      0.54970885     -1.05308202
    H      0.09628281     -1.17110895     -0.77010755
    C     -1.44621384     -0.02820160      0.19399683
    N     -2.51810588      0.10277947      0.57946145
    C     -1.81829067     -2.01620413      3.37041886
    H     -2.37792155     -1.93495061      2.46206248
    H     -2.36722481     -2.60398173      4.07617229
    H     -0.87828873     -2.48618505      3.16938809
    C     -1.57568542     -0.61076439      3.95135073
    N     -1.39505479      0.43564938      4.38388091
    C     -3.48925834     -2.98147768     -1.14208539
    H     -3.08390623     -3.96032167     -0.99223783
    H     -4.48996833     -3.06264232     -1.51207309
    H     -3.49454405     -2.45148930     -0.21257828
    C     -2.62477901     -2.21864336     -2.16304538
    N     -1.98113485     -1.65067854     -2.92319650
    C      1.26545763     -0.70174367     -4.22923928
    H      1.65064848     -1.04153638     -5.16789209
    H      1.61002887      0.29373141     -4.04162501
    H      0.19589420     -0.70931799     -4.25883298
    C      1.75451841     -1.63453645     -3.10571038
    N      2.11864639     -2.32904308     -2.26919205
    C      3.80529449     -0.21949580      0.04900981
    H      3.63354874      0.41516766      0.89316967
    H      4.78682945     -0.64063953      0.11324511
    H      3.07966212     -1.00580596      0.04046157
    C      3.68417135      0.60489572     -1.24609938
    N      3.59398966      1.21869267     -2.21036704
    C     -1.75356063      3.00290720      2.25582641
    H     -1.79080112      3.82476794      2.93997424
    H     -0.82231450      2.48789533      2.36737244
    H     -2.55993991      2.33046297      2.46190967
    C     -1.87967729      3.52909217      0.81401368
    N     -1.97357687      3.92086079     -0.25948144
    C     -3.22189922      1.69386442     -2.60468796
    H     -3.58530642      0.74040499     -2.92679121
    H     -3.77618204      2.46951653     -3.09052071
    H     -3.34018338      1.78116509     -1.54483583
    C     -1.73086815      1.82412659     -2.96725953
    N     -0.62072775      1.92111269     -3.23721054
    C      1.41032503      3.90284102     -1.48151829
    H      2.04397490      4.76435903     -1.44724380
    H      0.39773471      4.21087574     -1.63859960
    H      1.71787108      3.26559305     -2.28415741
    C      1.51307981      3.13671869     -0.14956558
    N      1.58958540      2.56630580      0.84213377
