60
Energy:   -251.85886937
    C      1.51768171      3.37978345     -2.50030636
    H      1.76757930      4.17598201     -3.17002213
    H      1.91736956      2.46040689     -2.87433239
    H      1.93226303      3.58237167     -1.53491554
    C     -0.01392562      3.26549186     -2.38753931
    N     -1.15427690      3.18039658     -2.30357912
    C      2.12310182     -2.36500289     -2.93390309
    H      2.65718257     -3.27481998     -2.75532316
    H      2.63366169     -1.55281463     -2.46000653
    H      2.06713851     -2.18513238     -3.98719023
    C      0.70014301     -2.48336965     -2.35703434
    N     -0.35931450     -2.57149908     -1.92752934
    C     -0.39908603      0.36610175     -0.10625801
    H     -0.92754829      0.02584801     -0.97219981
    H     -0.74894505      1.34016087      0.16523157
    H     -0.56784398     -0.31212763      0.70394243
    C      1.10792804      0.43003921     -0.41677470
    N      2.22996851      0.47764356     -0.64796849
    C     -3.48970121     -2.24653335     -0.65332371
    H     -2.93735777     -1.56117293     -1.26168050
    H     -4.49739178     -1.90129725     -0.55197854
    H     -3.48823368     -3.21269833     -1.11313038
    C     -2.83645274     -2.33926680      0.73817439
    N     -2.35007957     -2.40831106      1.77420797
    C      4.71898363     -0.88598631      1.06145464
    H      4.81636035     -0.12210259      0.31855517
    H      5.67808556     -1.09254471      1.48848649
    H      4.05092435     -0.55430520      1.82864661
    C      4.15994910     -2.16549328      0.41188377
    N      3.74372248     -3.11814438     -0.07175126
    C     -1.67193104     -0.68921642      4.51279802
    H     -2.57211293     -1.23974734      4.33534818
    H     -1.64585557     -0.36745920      5.53294087
    H     -0.82653028     -1.31433911      4.31425766
    C     -1.63061625      0.53975824      3.58569804
    N     -1.59985551      1.45478575      2.89542997
    C     -2.20610708      0.17117615     -3.76298827
    H     -2.45871428     -0.83917761     -3.51747845
    H     -2.72937573      0.46441983     -4.64904535
    H     -2.48447076      0.81486642     -2.95485734
    C     -0.68878755      0.27684599     -4.00418388
    N      0.44092581      0.35552198     -4.18376498
    C      1.89110688      2.19502713      2.69071296
    H      1.13404334      1.69322124      3.25635050
    H      2.51723711      2.75654452      3.35219482
    H      2.48230019      1.47320428      2.16691784
    C      1.22867536      3.14797421      1.67844998
    N      0.73546498      3.85748662      0.92477418
    C      0.74687733     -3.55163287      1.53155199
    H      1.61698710     -4.16239391      1.40997847
    H      0.30583663     -3.36465466      0.57477545
    H      0.04097949     -4.05693847      2.15707064
    C      1.14530450     -2.21443770      2.18329185
    N      1.44195163     -1.21883511      2.66854180
    C     -3.05347858      3.37163858      0.50679074
    H     -3.53734982      4.17911409     -0.00188607
    H     -1.99318022      3.46613958      0.39845770
    H     -3.30979865      3.39960821      1.54525924
    C     -3.51419424      2.03320893     -0.09979572
    N     -3.85721799      1.03668721     -0.55142692
