60
Energy:   -251.83896860
    C     -0.06471273     -1.86419296      3.00255937
    H      0.12514657     -2.12500022      1.98234704
    H     -1.09258492     -2.05167152      3.23327488
    H      0.55780233     -2.45333942      3.64309082
    C      0.24544360     -0.37106334      3.21695852
    N      0.47636908      0.74063953      3.37658843
    C     -2.39909842      2.52767255      2.62102454
    H     -2.09168307      2.93094266      1.67880948
    H     -1.56771660      2.52125019      3.29456899
    H     -3.18344155      3.13084587      3.02831668
    C     -2.90924816      1.08838721      2.42151279
    N     -3.28907783      0.01677385      2.27296723
    C     -2.82437277     -2.69858487      0.36909338
    H     -2.52346735     -3.72453850      0.41122724
    H     -3.75590515     -2.57876456      0.88172347
    H     -2.07929749     -2.08890230      0.83605065
    C     -2.98909309     -2.27191663     -1.10142402
    N     -3.11173485     -1.95424273     -2.19629107
    C      0.24966085     -2.90346126     -2.54452854
    H      1.19504640     -3.01915482     -3.03213631
    H      0.02003353     -1.86231135     -2.45410042
    H     -0.51064630     -3.38762123     -3.12108840
    C      0.31377807     -3.53859931     -1.14306908
    N      0.36151626     -4.01148846     -0.09961880
    C      3.72587969      1.48727070      3.52230025
    H      2.95585318      2.14075686      3.87573369
    H      4.67573932      1.83244649      3.87375359
    H      3.54881586      0.49718535      3.88737353
    C      3.72189396      1.47492678      1.98235488
    N      3.71892640      1.46573617      0.83579556
    C     -5.01636163      0.63197780     -0.91116234
    H     -5.91617450      1.20694216     -0.84294978
    H     -4.95607033     -0.03630049     -0.07769478
    H     -5.02135585      0.06830775     -1.82064033
    C     -3.80088800      1.57754531     -0.89993919
    N     -2.89591264      2.28156330     -0.89158306
    C      3.18019832     -1.86938995      0.04667777
    H      3.23118919     -2.86140457     -0.35107480
    H      3.99512886     -1.29004138     -0.33429800
    H      2.25484025     -1.41642979     -0.24217967
    C      3.26574282     -1.92738346      1.58320596
    N      3.32943460     -1.97056226      2.72722105
    C      0.49590966      2.25224869      0.11541397
    H     -0.26961237      2.89786487     -0.26148914
    H      1.40219660      2.41810398     -0.42867711
    H      0.65924287      2.46009143      1.15224701
    C      0.05823493      0.78519562     -0.05130766
    N     -0.26763380     -0.30709208     -0.17543950
    C      3.63891307      2.02906621     -2.57488982
    H      2.94039501      2.79632836     -2.31358251
    H      4.13003506      2.29010044     -3.48897921
    H      4.36546656      1.92783595     -1.79593440
    C      2.89171312      0.69478166     -2.75648544
    N      2.33538880     -0.29865384     -2.89169163
    C     -1.22235603      0.69116158     -3.57468425
    H     -0.66538381     -0.06466892     -4.08791166
    H     -2.08901877      0.94663594     -4.14785756
    H     -1.52426861      0.32295280     -2.61647228
    C     -0.34210321      1.94124801     -3.39018796
    N      0.31328503      2.87199418     -3.25282208
