60
Energy:   -251.81267308
    C     -1.06917373     -3.31140251     -0.51476190
    H     -1.32743663     -3.62839245     -1.50355805
    H     -1.28048789     -2.26791023     -0.40813508
    H     -1.64213614     -3.86605736      0.19866025
    C      0.43130644     -3.55873487     -0.27189167
    N      1.54848214     -3.74288506     -0.09106375
    C      2.60676557     -0.60904044     -0.90903873
    H      2.97393927     -1.13342242     -0.05165481
    H      3.21484503      0.25315667     -1.08723697
    H      2.64182033     -1.25287553     -1.76293957
    C      1.15267480     -0.16859966     -0.65757908
    N      0.07003813      0.15932852     -0.47035594
    C      4.06036881      2.00518417      2.03104769
    H      4.40830481      1.34680136      2.79940490
    H      4.79613313      2.76023625      1.84816437
    H      3.89061881      1.44778775      1.13361064
    C      2.74496122      2.66828804      2.48004226
    N      1.76558047      3.16199901      2.81433913
    C      2.05906954      1.58196400     -4.16056788
    H      2.24583702      0.58799964     -3.81120711
    H      2.76328053      2.25424940     -3.71670044
    H      2.16076022      1.61077687     -5.22533448
    C      0.63036544      2.00347297     -3.76975488
    N     -0.43336970      2.31730556     -3.47877684
    C     -3.02788163      1.88202344     -1.13686803
    H     -3.72135070      1.21636955     -1.60687413
    H     -2.03044691      1.61295651     -1.41548258
    H     -3.22761545      2.88519609     -1.45095419
    C     -3.17789781      1.78350378      0.39263811
    N     -3.28959168      1.71015142      1.53142495
    C      2.00980477     -3.49171600      3.18911691
    H      2.56622392     -4.14689318      2.55190363
    H      0.96285081     -3.63431584      3.02044036
    H      2.23917115     -3.70874645      4.21146124
    C      2.38569273     -2.03114923      2.87758367
    N      2.66555841     -0.94369088      2.64563301
    C     -1.90727418     -0.90467668     -3.32789373
    H     -2.56178900     -1.69517375     -3.63058980
    H     -2.12142789     -0.02576616     -3.89934240
    H     -2.05388065     -0.69862782     -2.28820652
    C     -0.44603451     -1.32848304     -3.56615157
    N      0.64192485     -1.64402613     -3.74354536
    C      0.14481773      3.70112080     -0.16593442
    H     -0.47319721      3.94025572     -1.00603692
    H      0.22998721      4.55776324      0.46952524
    H     -0.29422752      2.89328398      0.38136626
    C      1.54361633      3.28670093     -0.65910646
    N      2.58508546      2.97814650     -1.02629546
    C     -0.47100442      0.63007224      2.97599158
    H      0.41606478      0.65684316      3.57373043
    H     -1.26263052      1.13433342      3.48975015
    H     -0.28590110      1.11639882      2.04104650
    C     -0.87478226     -0.83416637      2.72188774
    N     -1.17541322     -1.92435857      2.53269588
    C     -4.48795517     -1.62071351      2.00198833
    H     -4.12911534     -0.72417832      2.46281239
    H     -3.97514527     -2.46403267      2.41519276
    H     -5.53815197     -1.71857949      2.18201061
    C     -4.23098039     -1.55645084      0.48494045
    N     -4.03965098     -1.50860437     -0.64457066
