60
Energy:   -251.80607589
    C     -0.90428525      5.02965247     -2.56000669
    H     -1.89257898      4.87080257     -2.18192945
    H     -0.89407750      5.90532670     -3.17481522
    H     -0.22632602      5.15989792     -1.74250654
    C     -0.47232633      3.81050304     -3.39588117
    N     -0.15071328      2.90279088     -4.01822772
    C     -0.24970674     -4.57060678     -2.02341467
    H      0.44914716     -4.53501780     -1.21394766
    H      0.19694687     -4.14798011     -2.89907804
    H     -0.52035164     -5.58764554     -2.21650162
    C     -1.50885715     -3.76631779     -1.65023983
    N     -2.44635187     -3.16748807     -1.37239419
    C     -3.48460111     -0.35778204      0.21783832
    H     -3.98113011      0.57138064      0.03071310
    H     -4.17819987     -1.16351064      0.09691981
    H     -2.67657065     -0.47595324     -0.47355262
    C     -2.93466566     -0.36535669      1.65627971
    N     -2.52521372     -0.37099635      2.72726470
    C      2.14717119      1.53320905     -1.94913638
    H      1.21768226      1.00416122     -1.91659565
    H      2.91867723      0.92519926     -1.52487042
    H      2.39181819      1.76224453     -2.96530058
    C      2.02243942      2.84008450     -1.14407827
    N      1.92957095      3.81311267     -0.54467592
    C      0.88520945     -1.27249063      3.45769127
    H      0.03574987     -1.25821397      2.80721852
    H      0.72222771     -1.98223365      4.24165612
    H      1.75603271     -1.54955861      2.90109512
    C      1.08903393      0.12723429      4.06664588
    N      1.24079053      1.16939312      4.52004027
    C     -1.57412270     -0.05698558     -3.22162436
    H     -1.75314960      0.50197407     -4.11628276
    H     -1.44791918      0.61631195     -2.39964978
    H     -2.40711660     -0.70083358     -3.03062699
    C     -0.29920571     -0.90385645     -3.39190772
    N      0.65002793     -1.53439030     -3.51869142
    C      2.29185831     -2.14393117     -0.40739102
    H      2.36297489     -2.39918430     -1.44406284
    H      2.28855386     -3.03786928      0.18062499
    H      3.12949148     -1.53826106     -0.13092497
    C      0.98869160     -1.36166567     -0.15956605
    N      0.01842475     -0.77923345      0.02495091
    C     -2.37387120     -3.82878313      2.20793030
    H     -2.42905322     -3.15218447      3.03501517
    H     -2.80503910     -4.76778686      2.48589671
    H     -2.91150006     -3.42136425      1.37734969
    C     -0.90010457     -4.03749499      1.81289701
    N      0.19718167     -4.19289045      1.51877677
    C     -0.30922602      2.31519023      1.63651885
    H      0.39842554      1.52930202      1.47370251
    H     -0.90664045      2.08522906      2.49390614
    H      0.21132036      3.23545938      1.80094284
    C     -1.21708436      2.45275457      0.40020607
    N     -1.89302616      2.55517747     -0.52028498
    C      3.50396468      3.08221353      2.59990981
    H      4.52072445      3.22157718      2.90269278
    H      2.86964170      3.09990612      3.46143196
    H      3.21990459      3.86811010      1.93164674
    C      3.36237553      1.72506394      1.88597878
    N      3.25695597      0.71460439      1.35442468
