60
Energy:   -251.79838605
    C     -2.76138352     -1.74946219     -2.59417482
    H     -2.16923490     -0.88725505     -2.81969430
    H     -3.79421592     -1.52706315     -2.76357084
    H     -2.46342365     -2.56147378     -3.22406067
    C     -2.55596743     -2.14179532     -1.11922433
    N     -2.40302581     -2.43390517     -0.02105665
    C      0.38922954      1.91680582      3.84918129
    H      0.39339027      2.46156427      4.77011620
    H      0.51639229      0.87377155      4.05119176
    H     -0.54295375      2.07184021      3.34728712
    C      1.54187103      2.41081780      2.95533020
    N      2.40006501      2.77863217      2.28981744
    C     -1.07144712     -3.05903387      3.24251046
    H     -1.48193039     -3.54109828      2.37994593
    H     -1.42814320     -3.54522118      4.12641593
    H     -0.00356158     -3.11759029      3.20948447
    C     -1.50424000     -1.58119508      3.25932820
    N     -1.82647398     -0.48087693      3.27184977
    C      1.80159588      3.85688876     -0.96284851
    H      2.48259130      4.67882025     -1.03750802
    H      1.29475657      3.89802240     -0.02140227
    H      1.08573864      3.91363139     -1.75608730
    C      2.58124197      2.53305083     -1.06870276
    N      3.16172391      1.54739332     -1.14751605
    C      4.19391140     -0.25210802      1.53224991
    H      5.03998354     -0.64573319      2.05581588
    H      4.18999135      0.81491733      1.61187797
    H      4.25036340     -0.53261937      0.50121856
    C      2.90059093     -0.81757523      2.14801691
    N      1.93765506     -1.23859127      2.60648343
    C     -4.16922030      0.70252231      1.24772842
    H     -5.12169223      0.97493481      1.65206595
    H     -3.40992770      1.32491217      1.67317489
    H     -3.96275129     -0.32134177      1.48004713
    C     -4.18834755      0.88827504     -0.28090825
    N     -4.20258866      1.02657640     -1.41904773
    C      0.08867291     -0.02042661     -0.00037940
    H      1.15322778      0.08483784      0.02291204
    H     -0.21450713     -0.36601397     -0.96658349
    H     -0.21621194     -0.72704815      0.74301170
    C     -0.56833261      1.34246792      0.28678299
    N     -1.05750307      2.35720486      0.50058845
    C      0.88158090     -3.83000984      0.09195165
    H      0.98291652     -4.67760089      0.73710333
    H      0.35602162     -4.11743616     -0.79465572
    H      0.33538394     -3.06078842      0.59679457
    C      2.27826369     -3.30353619     -0.28712973
    N      3.31815750     -2.91155262     -0.56937305
    C      2.52044311     -0.77752620     -3.45074667
    H      2.99093038     -1.06015073     -4.36925921
    H      3.22101180     -0.87157167     -2.64746711
    H      2.18857695      0.23751000     -3.51757079
    C      1.31263496     -1.69629795     -3.18872007
    N      0.41336689     -2.38036529     -2.99362935
    C     -2.22656830      3.28164437     -2.80206713
    H     -2.37952248      3.44558590     -1.75582224
    H     -3.13467646      2.92850610     -3.24425715
    H     -1.93639910      4.19996870     -3.26830887
    C     -1.11705647      2.23224384     -3.00041538
    N     -0.29097448      1.45091745     -3.14809467
