60
Energy:   -251.78268596
    C     -1.55852034      0.38090576      3.72643415
    H     -1.09843974     -0.11554294      2.89772147
    H     -2.56205809      0.02789028      3.84128693
    H     -1.00386282      0.17529990      4.61805086
    C     -1.57464057      1.89942062      3.47059677
    N     -1.58664281      3.03002395      3.28011420
    C     -2.73371884     -2.41198178      0.87004830
    H     -1.68720442     -2.39778544      0.64754836
    H     -3.24553758     -3.00380013      0.14019099
    H     -2.88610409     -2.83354192      1.84162685
    C     -3.28396104     -0.97390382      0.84238397
    N     -3.69364137      0.09681059      0.82178661
    C      1.15821458      3.21831989     -3.76651323
    H      0.25569171      3.04583872     -4.31478588
    H      1.65868260      4.07637854     -4.16421437
    H      0.92295555      3.38812605     -2.73660151
    C      2.07547177      1.98720469     -3.88732131
    N      2.75841145      1.07058346     -3.97726842
    C     -0.01869990     -4.95998192      0.07183326
    H     -0.76824576     -4.76078968     -0.66532591
    H     -0.42098327     -4.78079524      1.04700469
    H      0.29309007     -5.98078431     -0.00332372
    C      1.19033081     -4.03537069     -0.16255702
    N      2.09050914     -3.34695560     -0.33707124
    C      0.70894886     -1.35924038     -2.93395173
    H      1.55901494     -1.95984005     -2.68582298
    H      0.75775518     -0.43378239     -2.39912041
    H      0.70535423     -1.16349819     -3.98588859
    C     -0.57958419     -2.10851729     -2.54682552
    N     -1.53895561     -2.66638801     -2.25859246
    C      2.10472672     -1.71285637      2.65893104
    H      2.82551094     -2.44232438      2.35356780
    H      2.43528493     -1.24036996      3.56025616
    H      1.99442880     -0.97685171      1.89014590
    C      0.75032370     -2.40229270      2.90766781
    N     -0.25809092     -2.91560939      3.09286364
    C     -0.95176983      2.36378258     -0.02427755
    H     -0.41433391      3.00429743      0.64340764
    H     -1.99624057      2.40622505      0.20414884
    H     -0.79373526      2.68610069     -1.03226327
    C     -0.44946949      0.91693483      0.13673784
    N     -0.07548406     -0.16030909      0.25662112
    C     -3.90274253      0.04446085     -2.62533969
    H     -3.71584931     -0.95249277     -2.28467184
    H     -4.52289325      0.01324005     -3.49673939
    H     -4.39785715      0.59772826     -1.85484909
    C     -2.56657829      0.72797316     -2.97041369
    N     -1.57174329      1.23687914     -3.22733696
    C      3.39401223      0.11454052     -0.58686690
    H      3.85604292     -0.06276023     -1.53554613
    H      2.58287646     -0.57006402     -0.45168379
    H      4.11362489     -0.02676943      0.19229175
    C      2.86075734      1.55842308     -0.53744656
    N      2.46372484      2.63345927     -0.50065086
    C      1.69222435      4.19276275      2.56465103
    H      0.69546885      4.52973090      2.75915328
    H      1.94207196      4.38902446      1.54290909
    H      2.37523694      4.71109831      3.20474567
    C      1.78418598      2.67929193      2.83400052
    N      1.85265559      1.55244411      3.03454345
