60
Energy:   -251.77560420
    C     -1.29968132     -2.72665372      3.25520940
    H     -0.32854429     -2.32753324      3.46135473
    H     -1.43153771     -3.64092715      3.79522522
    H     -2.04631153     -2.02262014      3.55816013
    C     -1.43302892     -2.99850113      1.74526986
    N     -1.53231227     -3.20090388      0.62105124
    C     -3.73336220     -1.75320438     -1.40407410
    H     -3.02973262     -2.50262326     -1.70102012
    H     -4.68473067     -1.96162322     -1.84719790
    H     -3.82818119     -1.75529243     -0.33828609
    C     -3.24033403     -0.37162640     -1.87286565
    N     -2.87325215      0.65702121     -2.22190226
    C      0.15037371      0.10577670     -3.82117310
    H     -0.62731047      0.83876252     -3.87445800
    H      0.76913308      0.17837222     -4.69109599
    H      0.74279265      0.27722890     -2.94679159
    C     -0.47353490     -1.30042375     -3.75089966
    N     -0.93806322     -2.34740389     -3.69857788
    C     -2.65151456      1.66031964      3.72817436
    H     -1.59643759      1.64647248      3.90571600
    H     -3.16566120      1.33609442      4.60875958
    H     -2.95870156      2.65521004      3.48174319
    C     -2.98793081      0.71499101      2.55993728
    N     -3.23840800      0.01115088      1.69013167
    C      3.61714046     -1.43606263      1.82187428
    H      3.81136050     -1.28169938      0.78103292
    H      4.53230699     -1.66968917      2.32465452
    H      3.19644308     -0.54643721      2.24196881
    C      2.62594109     -2.60238043      1.99165832
    N      1.88794810     -3.47075704      2.11807025
    C      1.69198907      3.63694777      1.79644366
    H      2.00565320      2.70005196      2.20722490
    H      2.07168640      4.43555379      2.39890316
    H      2.06766468      3.73280019      0.79915772
    C      0.15337211      3.69802597      1.77348061
    N     -0.99219815      3.74350146      1.75638358
    C      0.96151805     -4.17394172     -1.32240912
    H      0.94874061     -4.47497325     -0.29570715
    H      1.46999906     -4.91372981     -1.90469747
    H     -0.04295582     -4.07004692     -1.67615650
    C      1.69376826     -2.82546794     -1.45290097
    N      2.23896182     -1.82146793     -1.55005808
    C     -2.00448889      3.71022855     -1.43223523
    H     -2.42695379      3.07878336     -0.67877616
    H     -2.56436671      3.60802599     -2.33832052
    H     -2.03871725      4.72829933     -1.10473040
    C     -0.54138387      3.30087130     -1.68393013
    N      0.54796433      2.99608622     -1.87132842
    C      3.57769844      1.28887748     -2.57319844
    H      4.54459207      1.59756275     -2.91191704
    H      2.83145611      1.93236879     -2.99026006
    H      3.39515897      0.28182564     -2.88532829
    C      3.52284581      1.36785695     -1.03620351
    N      3.48200553      1.42666075      0.10815909
    C     -0.09318109      0.11859678      0.04648433
    H      0.73027158      0.48077685     -0.53287003
    H     -0.95554833      0.72314700     -0.14256823
    H     -0.30178623     -0.89514245     -0.22502215
    C      0.26306288      0.18625462      1.54318491
    N      0.52830271      0.23662896      2.65754653
