60
Energy:   -251.76452733
    C      2.92480892      2.13588574      0.65845862
    H      3.34153357      2.11803519     -0.32689518
    H      2.72169330      1.13511582      0.97799374
    H      3.62074941      2.59098330      1.33184716
    C      1.61573518      2.94693892      0.64756365
    N      0.64107029      3.55080489      0.63945185
    C      2.24546835     -0.95238731     -1.82940705
    H      2.80100439     -0.11304008     -2.19241686
    H      1.85849471     -1.50898345     -2.65726648
    H      2.88711903     -1.57969315     -1.24659415
    C      1.07936510     -0.45648515     -0.95425892
    N      0.21114823     -0.08726345     -0.30267135
    C      0.06074687      4.27180540     -2.77400109
    H     -0.86863494      3.85315505     -3.09939548
    H      0.33391704      5.07945952     -3.42050861
    H     -0.04291778      4.63555775     -1.77308303
    C      1.15440265      3.18839735     -2.81576271
    N      1.96867909      2.38175081     -2.84685614
    C     -2.79089384     -1.55699202     -1.67576251
    H     -3.14083012     -0.70294290     -2.21709870
    H     -2.50084358     -1.25992316     -0.68959821
    H     -3.57278568     -2.28477847     -1.61354410
    C     -1.57936083     -2.16627406     -2.40553176
    N     -0.67731943     -2.61991224     -2.94887814
    C      3.40679387     -1.62197490      4.07916441
    H      3.86857366     -0.73338174      4.45607527
    H      3.96197399     -2.47738297      4.40312606
    H      2.40436892     -1.68685028      4.44772173
    C      3.38587434     -1.57636449      2.53998214
    N      3.37029881     -1.54240548      1.39399097
    C     -3.53158066     -1.95642074      3.11867976
    H     -2.64756364     -1.39190946      3.33020065
    H     -3.78376671     -2.55590824      3.96833617
    H     -4.33833463     -1.28783321      2.90179764
    C     -3.27982188     -2.86834900      1.90352365
    N     -3.09237601     -3.54732105      0.99878470
    C      0.40613307     -0.00360351     -5.05394589
    H      1.34507495      0.31968399     -4.65548194
    H      0.34813186      0.26041079     -6.08923880
    H      0.32170092     -1.06532071     -4.95134527
    C     -0.74024583      0.67920124     -4.28505507
    N     -1.59377702      1.18758042     -3.71258090
    C     -0.60179369      1.00537614      3.01687487
    H     -0.63929338      0.24455716      2.26544394
    H     -0.95895541      1.92772610      2.60870194
    H     -1.21676798      0.71977890      3.84460668
    C      0.85132955      1.18393911      3.49452339
    N      1.93324585      1.31688736      3.85015443
    C      0.33985534     -3.47856689      0.75027144
    H     -0.32748970     -3.01714006      0.05267840
    H      0.12501960     -4.52503546      0.81067202
    H      1.34923610     -3.33996815      0.42340761
    C      0.15678213     -2.83602156      2.13779431
    N      0.02047581     -2.35761736      3.17086815
    C     -2.28951732      2.40011083     -0.61862353
    H     -2.91304593      2.52941203     -1.47850344
    H     -1.34655515      1.99379748     -0.91967320
    H     -2.13495073      3.34681031     -0.14452613
    C     -2.97172442      1.43625995      0.36990312
    N     -3.47965862      0.71862916      1.10590615
