60
Energy:   -251.74988778
    C      0.39406856      1.84877066     -4.84121001
    H      0.91364364      2.78141507     -4.76968163
    H      0.38851600      1.52077925     -5.85968431
    H      0.88686712      1.11846780     -4.23399802
    C     -1.05500375      2.02961281     -4.35224626
    N     -2.13390395      2.16425802     -3.98819051
    C     -1.86932778      2.76347507     -0.70019873
    H     -1.86996959      3.62551404     -1.33406668
    H     -2.85531931      2.34986470     -0.65962451
    H     -1.19212336      2.03339272     -1.09169973
    C     -1.42398066      3.16884662      0.71717202
    N     -1.09239949      3.47066416      1.77246897
    C      2.54035355     -0.50423328     -1.66238712
    H      2.98869286     -0.63922160     -2.62450468
    H      3.21581833      0.02791683     -1.02562761
    H      1.63363009      0.05423756     -1.76660794
    C      2.22791914     -1.87963234     -1.04411358
    N      1.99529753     -2.90367946     -0.58378083
    C      0.28439675     -4.73086062     -2.82252744
    H      0.62287277     -3.84778532     -3.32303935
    H      0.04493344     -5.48153833     -3.54643309
    H      1.05638863     -5.09238155     -2.17582020
    C     -0.96920099     -4.40109371     -1.99105495
    N     -1.90256149     -4.15556726     -1.37198589
    C     -1.13992593     -2.18578511      1.25130076
    H     -2.11616280     -2.23288820      0.81582050
    H     -1.22050850     -2.25631690      2.31592783
    H     -0.54606735     -2.99657002      0.88406934
    C     -0.47360720     -0.84955227      0.87433771
    N      0.02249738      0.14533381      0.59367158
    C      1.23794812      1.84748504      4.10140112
    H      1.32736618      2.24329999      5.09146936
    H      0.67216755      2.52471068      3.49629215
    H      2.21266427      1.72054777      3.67865481
    C      0.52069014      0.48580106      4.15578631
    N     -0.01334102     -0.52803455      4.19627856
    C     -2.69039949     -0.74260162     -2.07914507
    H     -3.31359034     -0.17189619     -2.73552046
    H     -2.52077357     -0.19029127     -1.17854560
    H     -3.17302824     -1.66825158     -1.84432443
    C     -1.34297804     -1.02666138     -2.76861261
    N     -0.33976152     -1.23815678     -3.28195253
    C      2.22757858      2.92285734      0.66501000
    H      1.77236043      2.08595069      1.15210739
    H      1.89982183      3.82847302      1.13120185
    H      3.29188086      2.84595491      0.74404024
    C      1.82267676      2.93464973     -0.82076100
    N      1.52120894      2.94342970     -1.92698504
    C      2.58024064     -2.41126071      2.73144599
    H      2.91012415     -3.16991659      2.05283100
    H      1.51074309     -2.40115283      2.76262144
    H      2.96363921     -2.61608342      3.70917411
    C      3.09292553     -1.03911712      2.25607649
    N      3.47464274     -0.01749385      1.90214228
    C     -3.05216121      1.14142174      3.71361023
    H     -3.92337385      1.57097233      4.16235850
    H     -2.27259357      1.87337730      3.67600140
    H     -2.72741465      0.30404539      4.29519394
    C     -3.38765383      0.67491628      2.28482846
    N     -3.63744333      0.32758176      1.22103548
