60
Energy:   -251.73424891
    C      0.20657672      0.37149257     -4.66565803
    H      0.35486182      1.38681954     -4.36230533
    H     -0.03874188      0.34249866     -5.70675228
    H      1.10351914     -0.18639294     -4.49490339
    C     -0.94469620     -0.24515271     -3.84961927
    N     -1.80187121     -0.70427315     -3.24204131
    C     -0.13221513     -3.59191637      3.83435634
    H      0.66118971     -2.98902793      4.22414406
    H     -0.05422879     -4.58314626      4.22967965
    H     -1.07352873     -3.16848905      4.11637958
    C     -0.03157893     -3.64241386      2.29847797
    N      0.04334929     -3.68001155      1.15494671
    C      1.42851824      0.88301573      3.07202923
    H      1.30982648      1.92702045      3.27418415
    H      1.75884462      0.75041005      2.06297061
    H      2.15364353      0.47020334      3.74186378
    C      0.08028182      0.16542242      3.26930670
    N     -0.92354147     -0.36885842      3.41618875
    C      3.02188533      0.97167189     -2.21801627
    H      3.06706598      1.87598975     -2.78816370
    H      2.02717172      0.57876331     -2.25067785
    H      3.70187001      0.25575190     -2.63030076
    C      3.40983405      1.26601494     -0.75703784
    N      3.69867950      1.48516671      0.33072701
    C      0.39555873      3.25722397      0.35868109
    H      1.41816755      3.16856508      0.66085818
    H     -0.17775163      2.47201308      0.80551237
    H      0.01093114      4.20420367      0.67520938
    C      0.30248086      3.15200014     -1.17489787
    N      0.23318016      3.07365622     -2.31671713
    C     -3.33906007      2.20466200      3.26385541
    H     -4.00743481      2.72167020      2.60744249
    H     -3.77192545      2.14713962      4.24069615
    H     -3.16663764      1.21651216      2.89139133
    C     -2.00225455      2.96554437      3.33874884
    N     -1.00694208      3.53205588      3.39451041
    C     -0.06318753     -3.59158542     -2.18439495
    H     -0.73191566     -2.94308451     -1.65794510
    H      0.23373949     -4.39474377     -1.54277973
    H     -0.55627464     -3.98804788     -3.04728643
    C      1.18160719     -2.79838330     -2.62361757
    N      2.10841344     -2.20780826     -2.95063877
    C      3.27779546     -2.13278030      0.39433189
    H      3.35351621     -3.13738164      0.03385623
    H      4.16757931     -1.59503877      0.14131444
    H      2.43242519     -1.65525465     -0.05535406
    C      3.10489152     -2.14813118      1.92451769
    N      2.97615667     -2.15956061      3.06381057
    C     -3.26171712      2.38439932     -2.73311469
    H     -2.30787669      2.57675480     -3.17818545
    H     -3.93712673      3.17646599     -2.98080673
    H     -3.64769418      1.45766640     -3.10336716
    C     -3.10693064      2.30136981     -1.20316461
    N     -2.99168508      2.23955056     -0.06404723
    C     -2.17434404     -1.02188351      0.26986630
    H     -2.60000911     -0.43314322      1.05541980
    H     -2.11803527     -2.04418031      0.58073228
    H     -2.78777457     -0.94800591     -0.60371494
    C     -0.75986318     -0.50421383     -0.05085477
    N      0.29328211     -0.11878522     -0.28964618
