60
Energy:   -251.72652457
    C     -4.37487490      0.83878661      2.39401951
    H     -4.58860383      0.62411259      1.36779576
    H     -5.10997536      1.51514395      2.77751289
    H     -4.39560521     -0.06896399      2.96010978
    C     -2.97943125      1.48079121      2.50432417
    N     -1.94046003      1.95879281      2.58645100
    C      3.92559830      0.32609663     -0.03589792
    H      4.64074250     -0.38425829     -0.39487540
    H      4.30542120      1.31654740     -0.17604402
    H      3.00976723      0.21528569     -0.57799890
    C      3.66777587      0.08245247      1.46268979
    N      3.47581535     -0.09895168      2.57845646
    C      0.49904861     -3.70612987     -2.14818299
    H     -0.05185807     -3.28626976     -2.96373158
    H     -0.09760226     -3.67382979     -1.26056622
    H      0.74987654     -4.72182425     -2.37256962
    C      1.78967123     -2.89506045     -1.92895790
    N      2.75059844     -2.29118240     -1.76573485
    C      3.39778811     -3.44898899      1.64612401
    H      3.65968565     -2.90049658      2.52672945
    H      3.83127409     -2.97650342      0.78953404
    H      3.76712081     -4.45001249      1.72640097
    C      1.86538994     -3.47770855      1.49602062
    N      0.72444984     -3.49909157      1.38426181
    C     -1.25897930      3.11648998     -0.73522647
    H     -0.35571773      2.54722812     -0.80565138
    H     -1.29628021      3.61036787      0.21324196
    H     -1.28311157      3.84545469     -1.51812313
    C     -2.47058501      2.17582060     -0.87216706
    N     -3.37268053      1.47544950     -0.97412555
    C     -1.81456866     -1.44262206     -0.01340780
    H     -2.02354517     -1.56296831     -1.05587880
    H     -2.63886210     -0.95268714      0.46135867
    H     -1.66506774     -2.40321064      0.43360242
    C     -0.54259964     -0.59202245      0.16030209
    N      0.40443911      0.04128762      0.28963700
    C     -3.42250869      0.98470107     -4.46352742
    H     -3.92062989      1.10021136     -5.40343850
    H     -4.13258753      1.08275662     -3.66912686
    H     -2.96727052      0.01746261     -4.41762483
    C     -2.33880456      2.06942819     -4.32016623
    N     -1.53193757      2.87705683     -4.21342730
    C      0.29475131     -0.94075023      3.80821192
    H      0.30026632      0.03590900      4.24525482
    H      0.82106664     -0.91772176      2.87688976
    H      0.77317087     -1.63092546      4.47128958
    C     -1.15925592     -1.38621764      3.56526797
    N     -2.24183040     -1.71788837      3.38438516
    C      1.33351700      2.68451509      2.48348009
    H      0.63549242      3.42358007      2.81731360
    H      2.15409875      2.63382538      3.16829776
    H      0.84890080      1.73171568      2.43636834
    C      1.85461229      3.06508885      1.08518709
    N      2.24259142      3.34844331      0.04409439
    C      1.41799738      1.22956843     -2.94702542
    H      2.35587665      0.83112639     -3.27340957
    H      1.48510295      1.49884256     -1.91363906
    H      1.17762413      2.09631325     -3.52657112
    C      0.31752632      0.16800716     -3.13046787
    N     -0.50182440     -0.62237345     -3.26704911
