60
Energy:   -251.72256263
    C      0.42353826      3.83493984     -0.61224715
    H      1.35592244      4.13857013     -1.04046273
    H      0.53200677      2.86571655     -0.17208822
    H      0.13085971      4.53749312      0.13985474
    C     -0.65327512      3.78174458     -1.71190310
    N     -1.45501162      3.74213829     -2.53064694
    C      1.80219070     -1.98569207     -2.07746621
    H      0.81109216     -1.74168071     -1.75640186
    H      1.80166407     -2.95467197     -2.53131284
    H      2.13583844     -1.25901075     -2.78846027
    C      2.74918803     -1.98815718     -0.86305690
    N      3.45427058     -1.98999257      0.04112604
    C     -1.81217241     -0.87015135      1.15043947
    H     -2.14372725     -1.61232579      0.45463154
    H     -2.56553455     -0.11757109      1.25516546
    H     -1.63063176     -1.32772470      2.10047564
    C     -0.51198349     -0.22656324      0.63381280
    N      0.45606626      0.25261737      0.24916077
    C     -2.86570492     -3.80961879     -1.84962842
    H     -3.29756466     -2.93524259     -1.40932896
    H     -2.43091307     -4.41708873     -1.08357658
    H     -3.62578118     -4.36577802     -2.35743752
    C     -1.77598141     -3.39331000     -2.85500878
    N     -0.96463273     -3.08334919     -3.60356016
    C      3.67796387      1.67677432     -0.32747112
    H      4.34200105      2.51526024     -0.29753508
    H      4.22584332      0.78047364     -0.12406930
    H      2.91224993      1.80172524      0.40939285
    C      3.03576443      1.58014824     -1.72383901
    N      2.55761775      1.50820574     -2.76349837
    C     -0.65209507      2.24186022      3.59539024
    H     -1.00954031      1.34948695      3.12549342
    H     -1.35853316      3.03140664      3.44552107
    H     -0.52867691      2.06795950      4.64392522
    C      0.70147416      2.64014176      2.97828234
    N      1.70926797      2.93668047      2.51881746
    C     -0.78566528      0.48775375     -3.30558664
    H     -0.45375905     -0.33335962     -3.90601255
    H     -0.01503209      0.75867168     -2.61448096
    H     -1.00929550      1.32300878     -3.93585456
    C     -2.05063975      0.07748030     -2.52898167
    N     -2.99247075     -0.22798693     -1.95076397
    C      2.92169608     -0.29352275      2.91254109
    H      3.64018384     -1.07973204      3.01525663
    H      3.24201999      0.55816762      3.47549331
    H      2.83131941     -0.02552420      1.88059733
    C      1.55665625     -0.77348499      3.43970569
    N      0.54032205     -1.13083869      3.83220370
    C      1.60858916     -4.15843152      2.26251057
    H      1.84876133     -5.20100220      2.27875531
    H      1.19568318     -3.87277699      3.20739640
    H      2.49602960     -3.59086912      2.07483672
    C      0.57994404     -3.88590320      1.14930909
    N     -0.18592900     -3.68299347      0.32047998
    C     -4.44512975      2.64875397     -1.02708496
    H     -3.96783852      2.83752013     -1.96594629
    H     -5.15817124      3.42124713     -0.82777304
    H     -4.94471189      1.70328879     -1.06466651
    C     -3.38679891      2.62602217      0.09140468
    N     -2.59882348      2.60909732      0.92417107
