60
Energy:   -251.72165959
    C      3.64690590     -0.93861020     -0.62614296
    H      3.86882389      0.10811084     -0.63140076
    H      2.80622594     -1.12816089     -1.26035652
    H      4.49438929     -1.48468740     -0.98457104
    C      3.31771745     -1.38635259      0.81008881
    N      3.07262168     -1.71971715      1.87942865
    C     -2.01636994      1.59992084     -3.16784253
    H     -2.32652162      0.96163453     -3.96865256
    H     -0.96135728      1.49982102     -3.02010146
    H     -2.24759684      2.61583508     -3.41146409
    C     -2.75562034      1.20048710     -1.87727617
    N     -3.30602587      0.90309052     -0.91639086
    C     -0.13122703     -0.47906019      0.02546213
    H      0.49643267     -0.34230927     -0.83024965
    H     -1.09139047     -0.83123916     -0.28910939
    H      0.31375673     -1.19614726      0.68324224
    C     -0.29311448      0.86306687      0.76308493
    N     -0.41364704      1.86234148      1.31227864
    C      0.37410492     -3.54007709      2.83933013
    H     -0.52750287     -4.07985062      2.63771635
    H      0.95055808     -4.06866739      3.56953088
    H      0.94194534     -3.44468024      1.93746773
    C      0.02481817     -2.13972945      3.37656869
    N     -0.23524169     -1.09710698      3.77656721
    C      2.20368145      1.27665154      3.62968117
    H      1.15345487      1.47646631      3.58497789
    H      2.63677508      1.82442975      4.44040185
    H      2.36131656      0.22939479      3.78233623
    C      2.86501599      1.70794412      2.30747720
    N      3.35740962      2.02906105      1.32303624
    C     -3.41163851     -0.14066420      2.44171182
    H     -3.90235519      0.44145896      1.68989405
    H     -2.53273538      0.37207149      2.77266572
    H     -4.07366028     -0.28472932      3.26988541
    C     -3.01751965     -1.50909885      1.85548923
    N     -2.72408024     -2.52796065      1.41901987
    C      1.81597989     -1.57442097     -4.07913420
    H      1.89296152     -1.87965387     -5.10178120
    H      2.32250566     -2.28208346     -3.45660346
    H      2.26375073     -0.60993373     -3.96011852
    C      0.33170748     -1.50474928     -3.67455878
    N     -0.77340080     -1.45287554     -3.37333400
    C     -2.88659309      4.01120078      0.91680250
    H     -3.65712695      4.74180454      1.04869600
    H     -2.20096287      4.06395783      1.73657503
    H     -3.32326353      3.03508000      0.87930266
    C     -2.13591496      4.28863153     -0.39891575
    N     -1.57700097      4.49519134     -1.37852780
    C     -1.38198596     -4.11677746     -1.19173265
    H     -1.93879475     -3.22023929     -1.36803768
    H     -1.71397930     -4.56951644     -0.28085015
    H     -1.53394374     -4.79655357     -2.00395944
    C      0.11593297     -3.77714647     -1.07997547
    N      1.23120170     -3.52427577     -0.99676717
    C      1.70205695      3.79466112     -0.96562943
    H      1.10740184      3.68952156     -0.08232250
    H      1.28928259      4.56418752     -1.58397038
    H      2.70330482      4.05517293     -0.69261773
    C      1.71095385      2.46349609     -1.73991653
    N      1.71757800      1.47238321     -2.31640846
