60
Energy:   -253.36022419
    C      2.35335374      3.22143467     -2.23452641
    H      1.76398288      3.69044459     -1.47454492
    H      1.87627254      3.34680584     -3.18403928
    H      3.32413451      3.67063384     -2.26105747
    C      2.49104912      1.71945654     -1.92355747
    N      2.59356959      0.60116555     -1.69202696
    C      1.76337072     -1.84268641     -3.73851361
    H      1.87296729     -2.59406215     -4.49238579
    H      2.55598262     -1.93444369     -3.02559982
    H      1.80180384     -0.87425983     -4.19191403
    C      0.40954759     -2.02301581     -3.02700519
    N     -0.59843528     -2.15727924     -2.49725484
    C     -0.36356589     -0.01833597      0.10520805
    H      0.54296367     -0.38000992     -0.33330797
    H     -1.20045955     -0.49236655     -0.36362358
    H     -0.36738069     -0.24150383      1.15166906
    C     -0.45829923      1.50565147     -0.09501155
    N     -0.52883251      2.64032939     -0.24408414
    C     -3.76722993     -2.52030382     -0.85631846
    H     -3.18510787     -1.97584705     -1.57018185
    H     -4.72295694     -2.05241782     -0.74421290
    H     -3.90016311     -3.52585650     -1.19704074
    C     -3.03819236     -2.53007647      0.50015075
    N     -2.49539076     -2.53735265      1.51010374
    C      4.38285955     -0.43961245      0.86305279
    H      4.29487636     -1.00823380     -0.03907187
    H      5.21469455     -0.79946537      1.43178427
    H      4.53542437      0.59149163      0.62129374
    C      3.09268742     -0.58732291      1.69084351
    N      2.13209562     -0.69730007      2.30717134
    C     -0.78415417     -1.52642149      4.24507118
    H     -1.60532599     -2.20519038      4.14582503
    H     -0.46788522     -1.49619190      5.26681441
    H      0.02718944     -1.85582835      3.63016326
    C     -1.22520053     -0.11890755      3.80237196
    N     -1.55357960      0.92905056      3.47276226
    C     -2.23603145      1.08650781     -3.14545696
    H     -2.38835596      1.89216308     -2.45798550
    H     -2.26681244      0.15639743     -2.61739796
    H     -3.00634137      1.10075963     -3.88796527
    C     -0.86382348      1.24511846     -3.82625646
    N      0.15784772      1.36321130     -4.33314263
    C      1.24485934      2.80270073      2.82960884
    H      0.34633407      3.16254965      2.37347151
    H      1.45813345      3.38228492      3.70339109
    H      1.11902344      1.77627237      3.10439829
    C      2.41222046      2.92790907      1.83301922
    N      3.28137388      3.02113237      1.09101294
    C      0.59234072     -3.57135997      0.64037967
    H      0.57074880     -4.49810210      1.17477932
    H     -0.21202439     -3.54747375     -0.06483329
    H      0.48668789     -2.75969744      1.32953895
    C      1.93316490     -3.44010943     -0.10565238
    N      2.93146945     -3.34238744     -0.66110715
    C     -3.66935431      2.67285928      1.60414610
    H     -2.65943506      3.02634820      1.60712375
    H     -3.91356785      2.28282002      2.57013171
    H     -4.32951959      3.48131697      1.36861039
    C     -3.82125392      1.56188777      0.54855679
    N     -3.93435009      0.73471897     -0.23737744
