60
Energy:   -251.71788757
    C      3.09884639     -1.60390366      1.74960455
    H      4.02528977     -2.07993520      1.99454706
    H      3.23793224     -0.96879187      0.89978856
    H      2.36456917     -2.34823875      1.52222531
    C      2.62209029     -0.76157270      2.94742848
    N      2.26712370     -0.13441901      3.83926285
    C      0.31320377      3.67231997     -2.18163922
    H      0.81347418      3.86747752     -3.10713543
    H      1.03758646      3.47338841     -1.41967136
    H     -0.27046708      4.52534209     -1.90490703
    C     -0.60933318      2.45003537     -2.34456844
    N     -1.29620387      1.53998892     -2.46587665
    C     -0.39964554     -0.33411045      0.44856331
    H     -1.01400723     -0.19395850      1.31332763
    H      0.03625427     -1.31093120      0.47524033
    H     -0.99713027     -0.23413247     -0.43343188
    C      0.71713950      0.72617552      0.43496787
    N      1.54863672      1.51560662      0.42484545
    C      0.63149781     -1.02014284     -3.75965902
    H      0.70587448     -1.79311653     -4.49578399
    H      1.04013591     -0.11273776     -4.15276208
    H     -0.39657251     -0.86755724     -3.50532037
    C      1.41597175     -1.43323350     -2.50047010
    N      2.00004826     -1.74079827     -1.56294671
    C     -0.90093152     -4.04930866     -0.32582792
    H     -1.07260876     -5.07828689     -0.08785542
    H     -1.59023900     -3.43766639      0.21790733
    H      0.10020388     -3.78342624     -0.05762362
    C     -1.10264409     -3.83132841     -1.83691913
    N     -1.25282827     -3.66903221     -2.96199523
    C     -3.53428854     -1.00446787     -3.48095369
    H     -2.95829317     -1.75636039     -3.97873592
    H     -3.13950023     -0.03833222     -3.71679939
    H     -4.55245328     -1.06248287     -3.80479611
    C     -3.46609510     -1.22932000     -1.95898418
    N     -3.41532199     -1.39673263     -0.82580871
    C     -3.39761982      1.86116320      0.57284451
    H     -3.35525585      1.38487523     -0.38436772
    H     -4.37602138      2.26605322      0.72677163
    H     -3.18394602      1.14413554      1.33777191
    C     -2.35795410      2.99590874      0.62805102
    N     -1.58387571      3.84077837      0.66915478
    C     -0.83404244     -1.58292731      4.94660246
    H     -0.87924859     -2.25951642      5.77430032
    H     -1.79879089     -1.14807190      4.78829799
    H     -0.12443806     -0.80997038      5.15612165
    C     -0.40176189     -2.34749301      3.68162308
    N     -0.07990937     -2.91674692      2.73978844
    C      0.71175741      3.06055256      3.35008019
    H      0.67682689      3.74343424      4.17309455
    H      0.65899731      3.60635479      2.43126825
    H      1.62700419      2.50733025      3.38424884
    C     -0.47930696      2.08839104      3.43877993
    N     -1.36610853      1.36457260      3.50482091
    C      4.40134768      0.96060423     -1.32591400
    H      4.26090442     -0.08631521     -1.15522255
    H      4.15474686      1.50310997     -0.43722134
    H      5.42284706      1.14586234     -1.58498451
    C      3.48820467      1.41995050     -2.47776940
    N      2.80832820      1.76195469     -3.33537810
