60
Energy:   -251.71239597
    C     -3.18674723     -1.97160948      2.66312542
    H     -2.42358208     -2.62816928      2.30062249
    H     -3.99697430     -1.94651024      1.96469774
    H     -3.54172444     -2.32500424      3.60864243
    C     -2.60811040     -0.55415154      2.82923502
    N     -2.17728897      0.50121032      2.95291116
    C      0.35462083     -0.22905975      0.66709062
    H      0.06071462      0.71720922      1.07094004
    H      1.33868277     -0.47277746      1.00932282
    H     -0.33222896     -0.98339971      0.98974784
    C      0.34986276     -0.15452262     -0.87109714
    N      0.34632015     -0.09902633     -2.01634784
    C      0.57654751     -3.89701915      0.32403566
    H      1.38234548     -3.29100723      0.68228051
    H      0.69834926     -4.89886577      0.67951669
    H     -0.35210011     -3.50257791      0.68030634
    C      0.57805571     -3.89501358     -1.21596230
    N      0.57917864     -3.89352035     -2.36256078
    C     -2.20084892     -2.03064336     -3.28355427
    H     -1.16007812     -1.93010951     -3.51068696
    H     -2.74151777     -1.21739916     -3.72083013
    H     -2.56482211     -2.95527367     -3.68039353
    C     -2.39677295     -2.01502417     -1.75614803
    N     -2.54264730     -2.00339498     -0.61892466
    C      3.22011482     -1.63332682     -3.20781963
    H      2.72747313     -2.51723101     -3.55555189
    H      4.20583512     -1.58817193     -3.62160172
    H      2.66484506     -0.77153943     -3.51424593
    C      3.30962376     -1.66648450     -1.67078069
    N      3.37626723     -1.69117190     -0.52638533
    C      1.07994283     -0.36439600      4.69989707
    H      1.30666963     -0.62966365      5.71139508
    H      0.33325621      0.40194469      4.69094512
    H      1.96538520     -0.00528188      4.21830809
    C      0.55392022     -1.60242469      3.95010699
    N      0.16227248     -2.52419333      3.39185419
    C      0.29538535      2.98595236     -3.47023588
    H      0.77469785      3.84153435     -3.89818350
    H     -0.67276970      2.86286668     -3.90889839
    H      0.88620547      2.11419073     -3.65960940
    C      0.14861363      3.18639068     -1.95040611
    N      0.03933540      3.33562612     -0.81882376
    C      3.34229137      1.92619534      0.04803913
    H      2.38249620      2.30703804      0.32848921
    H      4.10716093      2.56585569      0.43625077
    H      3.46528643      0.94075298      0.44637902
    C      3.44581779      1.87573404     -1.48764832
    N      3.52289791      1.83816332     -2.63103743
    C     -0.91175848      3.82969967      2.46745151
    H     -0.82363625      4.39453976      1.56296805
    H     -1.06895450      4.49573195      3.29000211
    H     -1.74083827      3.15785219      2.38905028
    C      0.38091358      3.02512027      2.69821314
    N      1.34336669      2.42607434      2.87002566
    C     -2.98415736      1.53626785     -0.25139553
    H     -3.65681890      2.29879453      0.08174062
    H     -2.00044975      1.74345813      0.11506131
    H     -3.30998021      0.58666045      0.11871843
    C     -2.96288980      1.50732507     -1.79097665
    N     -2.94705513      1.48577586     -2.93726477
