60
Energy:   -251.71122862
    C      3.13892659      1.69547674      1.74988932
    H      2.36245712      1.51000457      2.46234663
    H      4.07701884      1.77754217      2.25797128
    H      3.18170854      0.88693371      1.05037023
    C      2.84473605      3.00800504      1.00000840
    N      2.62569782      3.98524202      0.44168797
    C     -0.68723946      4.66989390      1.50043498
    H     -1.09979273      4.33457695      0.57185406
    H      0.21799345      5.20922258      1.31448597
    H     -1.38938559      5.31031880      1.99211157
    C     -0.38576378      3.45453424      2.39687980
    N     -0.16130143      2.54964373      3.06432371
    C      1.98648575      2.77724471     -2.80589597
    H      2.83357709      3.33604622     -3.14512645
    H      1.45063274      3.34893647     -2.07724710
    H      1.34434997      2.56444018     -3.63491646
    C      2.46273156      1.45645660     -2.17319645
    N      2.81731821      0.47306981     -1.70212290
    C     -3.20492726      1.89459758     -2.39765583
    H     -4.23088264      2.13831194     -2.57909188
    H     -2.67337271      1.87517922     -3.32608019
    H     -2.77173826      2.63144910     -1.75399737
    C     -3.11682782      0.51126116     -1.72667234
    N     -3.05123379     -0.51869568     -1.22709463
    C      3.94880161     -2.67946940     -1.05950100
    H      4.71995648     -3.42112980     -1.04684443
    H      4.25505139     -1.85691694     -1.67147945
    H      3.05116758     -3.10501803     -1.45706934
    C      3.69006587     -2.18342068      0.37527824
    N      3.49742534     -1.81408987      1.44353661
    C     -3.19178226      0.64883317      2.25588159
    H     -3.07610142     -0.14988526      1.55333836
    H     -4.01298243      0.43454596      2.90750293
    H     -2.29592892      0.74939941      2.83227757
    C     -3.46572144      1.96206617      1.49959037
    N     -3.66968161      2.93982784      0.93649718
    C      0.08903551     -1.73866674     -2.50338149
    H     -0.72211708     -1.86873498     -1.81780588
    H      0.99549216     -1.57996575     -1.95744245
    H      0.18691701     -2.61438189     -3.11037513
    C     -0.18900778     -0.51949914     -3.40222646
    N     -0.39602365      0.38822655     -4.07145741
    C      0.14696530     -0.36447479      0.93183898
    H     -0.63051094     -1.08223044      0.77291225
    H      0.18836637     -0.10741552      1.96967595
    H      1.08484796     -0.78187511      0.63009046
    C     -0.14348716      0.89933030      0.10115609
    N     -0.35974222      1.84029064     -0.51732508
    C      0.86572186     -3.83213239      2.71734846
    H      1.76053315     -3.31571671      2.99578659
    H      0.90024512     -4.83345739      3.09292200
    H      0.01841685     -3.32545503      3.12996374
    C      0.74766045     -3.86346213      1.18220028
    N      0.65975836     -3.88678855      0.03921267
    C     -2.97738816     -3.84151650     -0.47345355
    H     -2.06777376     -3.96008692     -1.02431004
    H     -3.63445241     -3.18660626     -1.00661228
    H     -3.44681876     -4.79515519     -0.35054198
    C     -2.66524187     -3.24091701      0.90981973
    N     -2.43283476     -2.79374340      1.93972956
