60
Energy:   -251.70152170
    C      1.61114796      2.93333450     -3.48509203
    H      1.38317848      3.48841074     -4.37099296
    H      1.60729294      1.88701142     -3.70890500
    H      2.57784639      3.21749010     -3.12502421
    C      0.55347697      3.23139161     -2.40616014
    N     -0.23400716      3.45330867     -1.60284630
    C      0.54965758     -2.39426995     -3.71376229
    H      0.12715953     -2.70908858     -4.64504356
    H      1.32928648     -3.06968320     -3.42934217
    H      0.95265633     -1.40876695     -3.81994583
    C     -0.54436278     -2.38746387     -2.62993890
    N     -1.35891067     -2.38239643     -1.82298312
    C     -0.55328372      0.45737012      0.30340991
    H     -0.21878020      0.12258790      1.26306008
    H     -1.41604420     -0.10376031      0.01070511
    H     -0.80430307      1.49619705      0.35563051
    C      0.56829360      0.25168002     -0.73165331
    N      1.40335890      0.09853439     -1.50230493
    C     -3.75853050     -2.59760796      0.49690044
    H     -3.82973205     -1.82345596     -0.23829967
    H     -4.72708631     -2.78704653      0.91031518
    H     -3.38496092     -3.49012724      0.04000418
    C     -2.79971636     -2.15459681      1.61762189
    N     -2.08583565     -1.82475488      2.45204995
    C      4.54787244     -0.43965211     -0.30292660
    H      4.17718456      0.21921549     -1.06014794
    H      4.60791939     -1.43399999     -0.69352327
    H      5.52089306     -0.11792275      0.00467732
    C      3.59453911     -0.41986106      0.90635579
    N      2.88473911     -0.40512571      1.80672149
    C      0.76413187     -0.99729713      4.47945835
    H      1.80118852     -1.08802356      4.23210762
    H      0.20769972     -1.75403336      3.96698138
    H      0.63768410     -1.11511503      5.53540768
    C      0.25438121      0.39198774      4.05326380
    N     -0.12515133      1.42637348      3.73594258
    C     -2.80545628      1.00986909     -2.57090491
    H     -2.93316402      0.09892882     -2.02429834
    H     -3.72937425      1.27692196     -3.03990112
    H     -2.50728121      1.78903764     -1.90091455
    C     -1.72104865      0.81516502     -3.64689303
    N     -0.91365787      0.67019899     -4.44801508
    C      1.83354131      3.11050656      1.38429634
    H      0.89102046      3.38526875      0.95878444
    H      2.12695485      3.84464076      2.10530574
    H      1.74492197      2.15708786      1.86183011
    C      2.89531808      3.03066000      0.27170719
    N      3.68585915      2.97121060     -0.55666600
    C      0.75487126     -3.13824449      0.97323697
    H      0.93929148     -3.84110031      1.75865601
    H     -0.21538051     -3.31408903      0.55779829
    H      0.79967394     -2.14412026      1.36644026
    C      1.82140078     -3.30436889     -0.12517892
    N      2.61548049     -3.42805605     -0.94299947
    C     -3.37726251      1.70615750      3.00176940
    H     -4.23610930      2.09077849      3.51103264
    H     -2.64142937      2.47761856      2.91068424
    H     -2.96941816      0.88813366      3.55800593
    C     -3.78720651      1.21960550      1.59933827
    N     -4.09242845      0.85734542      0.55516455
