60
Energy:   -251.70123890
    C      3.31244537     -1.56444331     -1.63669775
    H      3.11260896     -1.80687914     -2.65953227
    H      4.36473697     -1.62895022     -1.45388543
    H      2.97549058     -0.56939973     -1.43359963
    C      2.57050883     -2.55479590     -0.72000154
    N      2.01810336     -3.29215841     -0.03747955
    C      2.18242778     -2.44493559      3.28527640
    H      1.36476747     -2.94593003      2.81058031
    H      2.47567417     -2.98923555      4.15857085
    H      3.00786949     -2.38755727      2.60685706
    C      1.74917199     -1.02307239      3.68801014
    N      1.42659336      0.03556940      3.98786372
    C     -3.10740880      0.55505304     -2.63752816
    H     -3.24842740      1.39650890     -3.28325718
    H     -3.99480658     -0.04276870     -2.63174690
    H     -2.28469552     -0.03120780     -2.99014721
    C     -2.81134955      1.04818026     -1.20897138
    N     -2.59091998      1.41533589     -0.14534593
    C     -1.67053475      1.70960302      3.38163450
    H     -2.31830368      1.30745064      2.63092214
    H     -2.25044239      2.24752608      4.10222107
    H     -1.14899544      0.91157185      3.86747612
    C     -0.65422316      2.66276479      2.72574319
    N      0.10246702      3.37243704      2.23740230
    C     -1.26462459     -3.90619549     -1.12185416
    H     -1.67176665     -3.52335148     -0.20940362
    H     -0.46581526     -4.58260094     -0.89986677
    H     -2.02877554     -4.42249374     -1.66444842
    C     -0.72852561     -2.74060086     -1.97366813
    N     -0.32937554     -1.87276267     -2.60788235
    C      0.35403318     -0.08004337      0.44340059
    H      1.36952054     -0.35822541      0.63392708
    H      0.19885270      0.93391100      0.74789140
    H      0.14879334     -0.17373812     -0.60254252
    C     -0.58877537     -1.00415676      1.23632334
    N     -1.29073919     -1.69220118      1.82669036
    C      1.21583923      0.51393596     -4.38441403
    H      1.65027946      0.29867859     -3.43056596
    H      1.97157196      0.88439060     -5.04511857
    H      0.79163835     -0.37941831     -4.79291232
    C      0.11341006      1.57633214     -4.21838910
    N     -0.70739857      2.36733439     -4.09477600
    C     -4.55509295     -1.15711773      1.60818793
    H     -4.14804761     -0.16825858      1.64522651
    H     -4.06993795     -1.77012106      2.33877033
    H     -5.60429365     -1.11889999      1.81462530
    C     -4.32912937     -1.75307520      0.20626954
    N     -4.16088922     -2.19679262     -0.83752242
    C      0.03561456      3.93216719     -1.05664781
    H     -0.28979227      4.27204344     -2.01763413
    H      0.37536230      4.76661542     -0.47944185
    H     -0.77936424      3.45723584     -0.55152520
    C      1.18793667      2.92556212     -1.23129025
    N      2.04589287      2.17609889     -1.36131949
    C      3.35941436      2.38615463      2.06229362
    H      4.23880347      2.93550683      2.32646616
    H      2.71278704      2.31792126      2.91206796
    H      2.85060975      2.88867904      1.26637517
    C      3.75671035      0.97044115      1.60456963
    N      4.05251528     -0.08362188      1.26377332
