60
Energy:   -251.70061413
    C      4.02633006      2.59118169      1.48001191
    H      4.76922549      3.35674044      1.56323668
    H      4.49634474      1.63120921      1.52938937
    H      3.32461507      2.68641799      2.28214982
    C      3.29058990      2.73392330      0.13468249
    N      2.74279791      2.84020091     -0.86697641
    C     -2.40668703     -0.96418228     -3.41402500
    H     -2.74226832      0.00471088     -3.71985407
    H     -2.55891419     -1.07843701     -2.36109013
    H     -2.96020410     -1.71516988     -3.93798643
    C     -0.90795406     -1.11336227     -3.73518665
    N      0.20792076     -1.22443355     -3.97430610
    C     -3.53121906      1.46093605     -0.75080488
    H     -3.75481617      2.42351554     -1.16110385
    H     -4.35161360      0.79769338     -0.92958139
    H     -2.64968885      1.07118138     -1.21544976
    C     -3.29739564      1.59107042      0.76576746
    N     -3.12330347      1.68796137      1.89492450
    C     -0.47791650     -3.44268487     -0.71074123
    H     -0.90940007     -4.39597263     -0.93426878
    H      0.50929667     -3.39312294     -1.12043974
    H     -1.08085583     -2.66913909     -1.13851474
    C     -0.40996965     -3.25532259      0.81630776
    N     -0.35938013     -3.11582285      1.95326514
    C     -3.54912671     -1.79972623      2.67208525
    H     -3.29651815     -0.80685084      2.98077209
    H     -2.81839433     -2.48620622      3.04581577
    H     -4.51264020     -2.05908135      3.05844749
    C     -3.57766349     -1.86742919      1.13383886
    N     -3.59891042     -1.91783712     -0.01145550
    C     -0.51941835      3.69084452      0.02815802
    H      0.09373755      4.28900693     -0.61304534
    H     -1.46650090      4.16975737      0.16445260
    H     -0.66698125      2.72843698     -0.41557164
    C      0.17356789      3.52580842      1.39349063
    N      0.68952765      3.40293154      2.41004283
    C      2.33179445     -0.57798776     -1.22279851
    H      2.32025873     -1.47229706     -1.81014677
    H      2.89445353     -0.74597017     -0.32831779
    H      2.78353656      0.21228564     -1.78520059
    C      0.88841526     -0.18648404     -0.85540042
    N     -0.18624615      0.10500828     -0.58185584
    C      3.11705981     -3.40509268      2.81549190
    H      2.13562893     -3.26805611      3.21911869
    H      3.73045835     -2.56840919      3.07741184
    H      3.54535658     -4.30039394      3.21536265
    C      3.03032393     -3.51795733      1.28208443
    N      2.96574512     -3.60199019      0.14039287
    C     -0.21198538      0.11576276      2.97500827
    H     -0.50287269     -0.67522330      3.63426983
    H     -0.81042839      0.07964953      2.08874596
    H     -0.35397355      1.05729149      3.46312926
    C      1.27234495     -0.04893039      2.59918966
    N      2.37749636     -0.17155193      2.31937561
    C      1.15191399      2.20854597     -3.89003941
    H      1.49006440      1.23573334     -3.59988416
    H      1.73729561      2.95290586     -3.39188702
    H      1.25718189      2.32163888     -4.94882539
    C     -0.32879148      2.37457819     -3.50075210
    N     -1.43124401      2.49819672     -3.21091000
