60
Energy:   -253.34382849
    C      1.73231362      2.64805455     -2.98116111
    H      1.62101096      1.87826376     -3.71596315
    H      2.30433636      2.27487954     -2.15749279
    H      2.23707231      3.48553546     -3.41560728
    C      0.34274346      3.08772519     -2.48378350
    N     -0.69185469      3.41507997     -2.11346325
    C      1.03564762     -2.64890877     -3.38416707
    H      0.03071132     -2.30352896     -3.25880358
    H      1.22348225     -3.45393759     -2.70479542
    H      1.17260571     -2.99071928     -4.38880987
    C      2.01454768     -1.49540412     -3.09644898
    N      2.74338326     -0.63656747     -2.88222978
    C      0.08391552      0.12208372     -0.42276375
    H      0.76263895     -0.27195055      0.30454064
    H     -0.40479119      0.98609457     -0.02332653
    H      0.62490146      0.39420196     -1.30491167
    C     -0.96818375     -0.94598001     -0.77479643
    N     -1.75151948     -1.74120200     -1.03690077
    C     -3.82495414     -1.14624929      1.74956490
    H     -3.46864181     -0.20721124      2.11854897
    H     -4.81123695     -1.32545923      2.12376955
    H     -3.84789459     -1.12370049      0.68004894
    C     -2.88524884     -2.27228916      2.21923302
    N     -2.18559553     -3.11067703      2.56892228
    C      3.95903899     -0.27151898      0.18059249
    H      3.62764357     -1.23359592     -0.15029302
    H      5.01439844     -0.18541925      0.02663676
    H      3.45411668      0.49039916     -0.37567479
    C      3.64378212     -0.10735891      1.67901319
    N      3.40905905      0.01486573      2.79465550
    C      0.62784295     -1.52445188      3.65085761
    H      1.11076944     -1.96753043      2.80506593
    H     -0.04300290     -2.23288650      4.09015856
    H      1.36430637     -1.23621897      4.37158120
    C     -0.16165188     -0.28197141      3.19859638
    N     -0.74946666      0.64311178      2.86186734
    C     -3.10616620      0.97271884     -3.22413996
    H     -3.41716719      0.28698557     -2.46391076
    H     -3.81975081      0.96897308     -4.02143668
    H     -3.03868577      1.95722328     -2.81050183
    C     -1.72864777      0.54810206     -3.76612111
    N     -0.70302268      0.23195556     -4.16965071
    C      1.69730368      3.06539732      3.24345771
    H      2.05593087      4.03554122      3.51751524
    H      2.27138158      2.31706029      3.74875498
    H      0.66819713      2.97382347      3.52176157
    C      1.83604994      2.87795880      1.72121716
    N      1.93935284      2.73840231      0.58783988
    C     -0.42247664     -4.78557137      0.32112499
    H     -1.31690013     -4.33593392     -0.05667517
    H     -0.58546275     -5.11389663      1.32637975
    H     -0.15921026     -5.62378823     -0.28959786
    C      0.72049799     -3.75376272      0.29704372
    N      1.57149455     -2.98553427      0.27911412
    C     -1.80778717      3.50259583      1.12724451
    H     -0.87680515      3.48977128      0.59997969
    H     -1.63899793      3.25752495      2.15503318
    H     -2.24242149      4.47802183      1.05989316
    C     -2.76508885      2.46988631      0.50379880
    N     -3.47784346      1.70098714      0.03961513
