60
Energy:   -251.69636873
    C      2.27986889      4.08004428     -1.81336868
    H      2.16235491      4.78283259     -2.61160377
    H      2.58675111      3.13565068     -2.21191994
    H      3.02202786      4.43702037     -1.13023822
    C      0.93916367      3.91399630     -1.07408688
    N     -0.05905230      3.79036603     -0.52365797
    C      1.02995422     -3.05838594     -2.38327350
    H      0.47990699     -3.20415814     -3.28941846
    H      1.73332412     -3.85537055     -2.26085858
    H      1.55224886     -2.12564922     -2.42920397
    C      0.05756860     -3.04396449     -1.18918044
    N     -0.66641669     -3.03322707     -0.30012388
    C     -0.35627339      0.34364267     -0.01778860
    H     -0.18368042     -0.45881199      0.66863575
    H     -1.24476494      0.14673280     -0.58055707
    H     -0.47322876      1.25833198      0.52494890
    C      0.84241585      0.46551188     -0.97689860
    N      1.73489448      0.55624905     -1.69099960
    C     -3.78215445     -1.72114786     -1.65200832
    H     -2.91633667     -2.32167565     -1.83808931
    H     -3.78214470     -0.88051070     -2.31399642
    H     -4.66343451     -2.30509988     -1.81706766
    C     -3.75991431     -1.22627063     -0.19385816
    N     -3.74335552     -0.85781203      0.89180091
    C      3.97011649     -0.85842024      0.52169535
    H      3.78927875     -1.58880293     -0.23905363
    H      4.89670234     -1.07498945      1.01101686
    H      4.01985121      0.11396114      0.07796119
    C      2.82521385     -0.89501974      1.55099531
    N      1.97278179     -0.92226974      2.31735592
    C     -1.39585010     -1.58564362      3.22177343
    H     -0.45742007     -1.89550907      3.63193519
    H     -1.46213818     -1.90408991      2.20241239
    H     -2.19328868     -2.02372282      3.78486972
    C     -1.50336731     -0.05083510      3.28812742
    N     -1.58341875      1.09189961      3.33753098
    C     -0.82280332      1.76766896     -3.93933392
    H     -1.58989658      2.17651456     -4.56328375
    H      0.13302496      1.94589356     -4.38601881
    H     -0.85936402      2.23416127     -2.97707235
    C     -1.04182096      0.25132382     -3.78335733
    N     -1.20488955     -0.87766406     -3.66722567
    C      1.28497133      2.66021472      2.78223585
    H      0.39266406      2.91854637      2.25124369
    H      1.47112791      3.38937807      3.54287087
    H      1.16563830      1.69713544      3.23294308
    C      2.47305291      2.62507429      1.80303858
    N      3.35763366      2.59891064      1.07398170
    C      1.19393091     -4.39880293      2.40400974
    H      1.30507385     -5.35214246      2.87696975
    H      0.19422234     -4.29746401      2.03629751
    H      1.39327894     -3.62319170      3.11364814
    C      2.18589081     -4.28885916      1.23118071
    N      2.92445003     -4.20700103      0.35795618
    C     -3.26262006      2.76470537      0.84976321
    H     -3.93324600      3.59222141      0.95163686
    H     -2.27081124      3.07608928      1.10324773
    H     -3.56731218      1.97588876      1.50537754
    C     -3.28635449      2.26084615     -0.60528407
    N     -3.30402585      1.88570006     -1.68863290
