60
Energy:   -251.69366600
    C      3.19419525      2.07238685     -1.59218709
    H      4.20507136      2.22515790     -1.90792541
    H      3.14785477      1.22335065     -0.94265712
    H      2.84858320      2.94010484     -1.07015558
    C      2.30340640      1.82562251     -2.82393486
    N      1.64017361      1.64189524     -3.74102707
    C      1.17801610     -1.92240859     -3.78899180
    H      0.21850245     -2.36636410     -3.62425796
    H      1.77943334     -2.58168567     -4.37937315
    H      1.05702519     -0.99248785     -4.30426621
    C      1.86754495     -1.67296863     -2.43476520
    N      2.38093051     -1.48724924     -1.42648194
    C     -0.36089797     -0.04773240     -0.00954977
    H     -0.50989028     -0.45760347     -0.98664096
    H     -1.23416317     -0.21691849      0.58516280
    H      0.48131688     -0.52052133      0.45093244
    C     -0.10177068      1.46614237     -0.12196078
    N      0.09116137      2.59329094     -0.20565589
    C     -3.62115804     -2.17382319     -1.44677488
    H     -2.85569850     -2.51223061     -2.11344744
    H     -3.83448449     -1.14367318     -1.64217670
    H     -4.50659779     -2.75586166     -1.59552562
    C     -3.14144476     -2.33171542      0.00806023
    N     -2.78427642     -2.44927336      1.09125110
    C      4.20412375     -1.00826795      1.36808426
    H      4.26724330     -0.13577802      0.75190456
    H      4.25127078     -1.88300706      0.75366767
    H      5.01911765     -1.01501936      2.06136520
    C      2.87243798     -0.99531380      2.14141808
    N      1.88093739     -0.98566886      2.71720025
    C     -1.37952572     -1.53610836      4.03177844
    H     -2.25946446     -2.08803606      3.77490530
    H     -1.25911809     -1.53143912      5.09497141
    H     -0.52578762     -1.99464592      3.57815562
    C     -1.51511358     -0.08851142      3.52415750
    N     -1.61606491      0.98929030      3.14621063
    C     -1.74339776      2.45028506     -3.34560000
    H     -2.60364948      2.80054051     -3.87681396
    H     -0.85835946      2.84052431     -3.80311462
    H     -1.79387444      2.77910705     -2.32863033
    C     -1.70642313      0.91126565     -3.38624610
    N     -1.67889385     -0.23460427     -3.41650898
    C      1.32611674      2.65612564      3.15355610
    H      0.53448049      2.97874449      2.51002730
    H      1.48229963      3.38590551      3.92032029
    H      1.06352112      1.71998778      3.60030943
    C      2.61863825      2.48879662      2.33319694
    N      3.58097926      2.36421255      1.72240226
    C      0.55332471     -3.66016598      0.85882093
    H      1.56662431     -3.33554946      0.74591296
    H      0.53105156     -4.57132043      1.41935691
    H     -0.00619684     -2.90921782      1.37642269
    C     -0.06772090     -3.89679427     -0.53039086
    N     -0.53011759     -4.07297478     -1.56472218
    C     -3.19043687      3.24665375      1.30614638
    H     -3.71079569      4.13620271      1.01834516
    H     -2.14188603      3.45082635      1.36741434
    H     -3.54620392      2.91823457      2.26033176
    C     -3.43860041      2.14518845      0.25886941
    N     -3.62336944      1.32509747     -0.52087590
