60
Energy:   -251.69172377
    C      0.38698676     -1.97650160      2.86170391
    H     -0.26792881     -2.16852582      3.68578672
    H      1.15968389     -2.71635254      2.84028367
    H     -0.16870400     -2.01458788      1.94810864
    C      1.01724978     -0.58047973      3.02136435
    N      1.48650924      0.45892201      3.14023881
    C     -1.23907446      1.04693574     -2.26414044
    H     -0.66231940      0.59190651     -3.04208786
    H     -1.05073985      2.10013490     -2.24997410
    H     -2.27954610      0.87304756     -2.44325145
    C     -0.84272957      0.43628608     -0.90707828
    N     -0.54763278     -0.01837035      0.10331619
    C      3.50558087      0.31255666     -4.04046771
    H      3.98075512     -0.07857559     -3.16518195
    H      4.24320122      0.74532029     -4.68353144
    H      3.00218976     -0.47812739     -4.55652509
    C      2.48456833      1.39063449     -3.63195628
    N      1.72437808      2.19331243     -3.32780096
    C      2.08589413     -2.35248894     -0.43241721
    H      3.13757333     -2.53219206     -0.51352099
    H      1.60155014     -3.23114954     -0.06057646
    H      1.91398623     -1.53859021      0.24057285
    C      1.51677338     -2.00064147     -1.81946621
    N      1.09303711     -1.73867504     -2.85218724
    C      5.01874384     -0.04757865      2.59778979
    H      4.26238538      0.68598063      2.78410361
    H      5.52036591      0.18223015      1.68102248
    H      5.72507014     -0.04368649      3.40152302
    C      4.36879081     -1.43971280      2.49232157
    N      3.88487123     -2.47621996      2.41379569
    C     -1.43160126      2.29529522      2.73755144
    H     -2.30286518      2.56281926      3.29811389
    H     -0.55582454      2.58633136      3.27904215
    H     -1.41906036      1.23682784      2.58138289
    C     -1.45614591      3.01478917      1.37618227
    N     -1.47442052      3.55048511      0.36258104
    C     -1.98485060     -3.07915632     -2.47651114
    H     -1.86831112     -2.03136061     -2.65938507
    H     -3.00662450     -3.35669138     -2.63095035
    H     -1.36018124     -3.63009028     -3.14819489
    C     -1.58104592     -3.39482338     -1.02430726
    N     -1.28039498     -3.62985186      0.05692453
    C      1.92707421      2.47927199      0.22239418
    H      2.44565045      3.34054519      0.58871008
    H      1.28281689      2.09875932      0.98727438
    H      1.34390982      2.75093858     -0.63260036
    C      2.94728358      1.39633749     -0.17513028
    N      3.70687584      0.59004354     -0.47110532
    C     -4.74116331      2.70044977     -0.83527051
    H     -3.84158684      3.23684499     -1.05422835
    H     -5.58418942      3.34278951     -0.98225932
    H     -4.81945885      1.85466090     -1.48597020
    C     -4.70986643      2.22125543      0.62794283
    N     -4.68656448      1.86447347      1.71737168
    C     -3.49026077     -1.37423891      1.58868837
    H     -2.55273438     -0.93036671      1.85121820
    H     -3.43109064     -2.43487168      1.71696984
    H     -4.26006318     -0.98109031      2.21935270
    C     -3.81681923     -1.05240430      0.11852442
    N     -4.05995686     -0.81278379     -0.97607947
