60
Energy:   -251.69131633
    C      3.93171135      2.20294965     -2.11933819
    H      4.27075597      3.17097355     -2.42409818
    H      2.91331294      2.07079275     -2.41983499
    H      4.53942279      1.45135355     -2.57834711
    C      4.03482294      2.08166233     -0.58758841
    N      4.11159421      1.99135841      0.55286892
    C     -2.41445798      3.86190111     -1.84771353
    H     -2.62337146      4.90129410     -1.99234257
    H     -3.15089205      3.27587674     -2.35677087
    H     -1.44493853      3.63508586     -2.23948638
    C     -2.44924749      3.53583305     -0.34303107
    N     -2.47514987      3.29306055      0.77727342
    C     -0.02709018      0.82020806     -2.70726186
    H      0.61502299      0.07422369     -3.12690238
    H      0.40869166      1.78701198     -2.84968190
    H     -0.98039797      0.78379243     -3.19180005
    C     -0.20640297      0.55480381     -1.20093935
    N     -0.33990949      0.35719828     -0.07941377
    C      2.62699630     -0.95851910      1.28151636
    H      2.02727352     -0.07999201      1.16565895
    H      3.48893234     -0.88761071      0.65148671
    H      2.93722466     -1.04659857      2.30176116
    C      1.80310682     -2.19823003      0.88664559
    N      1.18968366     -3.12125117      0.59264636
    C      2.45747361     -3.55281630     -2.76107214
    H      1.90384907     -3.62111376     -3.67416332
    H      1.88170139     -3.97221426     -1.96264193
    H      3.37625543     -4.09224555     -2.85984035
    C      2.76060224     -2.07452199     -2.45389312
    N      2.98629527     -0.97386467     -2.22518438
    C     -0.40888185     -3.81106963      3.47715281
    H     -0.66779268     -4.34424986      4.36798624
    H      0.40480655     -3.14727158      3.68253644
    H     -0.11903292     -4.50609736      2.71700603
    C     -1.62451478     -2.99873979      2.99346198
    N     -2.52960875     -2.39392331      2.63333217
    C     -1.87428685     -2.88861233     -0.74345020
    H     -2.93416017     -2.79961229     -0.86027366
    H     -1.52869609     -2.15073793     -0.04990317
    H     -1.63687186     -3.86431807     -0.37394848
    C     -1.18795281     -2.67440614     -2.10530970
    N     -0.67694592     -2.51491990     -3.11927600
    C      1.05503103      3.16912942      1.59973340
    H      1.90912238      3.62038535      2.05994665
    H      1.11460860      2.10575272      1.70259054
    H      0.16453962      3.52410120      2.07504295
    C      1.02167270      3.53923241      0.10523984
    N      0.99683590      3.81479091     -1.00747855
    C     -1.53776504      0.97890744      3.26592210
    H     -1.57664397      1.87375891      3.85126769
    H     -2.41186505      0.39123143      3.45429719
    H     -1.49612591      1.23350554      2.22748814
    C     -0.28368483      0.17037202      3.64691201
    N      0.65003489     -0.43161935      3.93057632
    C     -3.89500632      0.04138595      0.55618793
    H     -2.97344973     -0.30605377      0.97442145
    H     -4.64884047     -0.70736054      0.68272591
    H     -4.19673927      0.93903906      1.05425944
    C     -3.70213102      0.32712572     -0.94472909
    N     -3.55852659      0.53987197     -2.06223003
