60
Energy:   -251.68954572
    C     -1.84667931     -2.20120664     -2.57484591
    H     -1.67643949     -1.83577885     -3.56599732
    H     -2.39520830     -3.11868394     -2.62228472
    H     -0.90749676     -2.37175184     -2.09136937
    C     -2.65394794     -1.16120855     -1.77589576
    N     -3.25499612     -0.38688270     -1.18104105
    C     -3.45162749      2.12111052      1.19197485
    H     -2.58458625      2.62788199      0.82275627
    H     -4.05935578      2.80870708      1.74222605
    H     -4.01245562      1.72845755      0.36966436
    C     -3.01767023      0.96723811      2.11493722
    N     -2.69456933      0.10812764      2.80212466
    C     -0.05048176     -0.21309624      0.58210493
    H      0.20895942      0.05890819      1.58390534
    H      0.72027156     -0.82965681      0.16895669
    H     -0.97454810     -0.75251928      0.58692843
    C     -0.20322723      1.05917523     -0.27205788
    N     -0.31695318      2.00643917     -0.90802092
    C     -2.77423805      2.62733159     -3.05241961
    H     -2.07418476      3.34780116     -2.68397808
    H     -3.27184601      2.15982820     -2.22857133
    H     -3.49528019      3.11603086     -3.67384567
    C     -2.02784499      1.55988585     -3.87403814
    N     -1.47212142      0.76512398     -4.48577047
    C      0.20736720      1.17843634      4.53256621
    H      1.26403317      1.16027152      4.69997957
    H     -0.11117342      0.22720046      4.16030116
    H     -0.29606128      1.38792636      5.45320338
    C     -0.13042148      2.27214162      3.50236838
    N     -0.38192050      3.08645492      2.73533926
    C      1.38977252     -4.44412841     -1.02419410
    H      1.96552289     -3.95717858     -1.78333279
    H      0.35444589     -4.42372305     -1.29360358
    H      1.71320358     -5.45947880     -0.92747266
    C      1.58572021     -3.71299378      0.31694223
    N      1.73161217     -3.16863081      1.31547919
    C     -1.49446398     -3.04070573      2.87443529
    H     -1.22982032     -3.88588631      3.47487988
    H     -2.40333385     -2.61235917      3.24236717
    H     -0.71249342     -2.31178541      2.92022071
    C     -1.69271322     -3.48987753      1.41479768
    N     -1.84031880     -3.82430634      0.32803114
    C      4.04329760     -0.82376750      0.55448942
    H      3.36078620     -1.00551163     -0.24928134
    H      4.36476395     -1.75709153      0.96736317
    H      4.89172489     -0.28517625      0.18707998
    C      3.34183028      0.00592979      1.64588578
    N      2.81955598      0.62367713      2.45847998
    C      2.26491298      3.75918617      0.69554502
    H      2.74914011      4.71330846      0.70420070
    H      2.31028147      3.32730514      1.67346095
    H      1.24190606      3.88101014      0.40655565
    C      2.97505768      2.83221205     -0.30845373
    N      3.50379268      2.14203768     -1.05597643
    C      1.78688805      1.02146503     -3.69881788
    H      1.22839101      1.78000845     -3.19128156
    H      1.39347276      0.88849843     -4.68494332
    H      2.81364807      1.31604299     -3.76116195
    C      1.67916315     -0.30287237     -2.92027706
    N      1.59895706     -1.28890176     -2.34061804
