60
Energy:   -251.67481570
    C      2.18018788      2.77299606     -2.64464268
    H      2.41230470      3.60060438     -3.28189179
    H      2.02098322      1.89820347     -3.23986607
    H      2.99362785      2.60265149     -1.97070112
    C      0.90450110      3.08607553     -1.84077422
    N     -0.04530568      3.31917744     -1.24225761
    C      1.58175185     -2.66457471     -3.18984158
    H      1.69717943     -3.40234666     -3.95617650
    H      2.40703422     -2.72297196     -2.51131534
    H      1.55278490     -1.69121931     -3.63328185
    C      0.26952113     -2.91959084     -2.42523886
    N     -0.70749429     -3.10946194     -1.85595739
    C     -0.33597528     -0.07663188     -0.02136592
    H     -1.02189255     -0.43285632     -0.76131311
    H     -0.59031687      0.92752282      0.24674374
    H     -0.38992266     -0.70176399      0.84535123
    C      1.09494105     -0.10944423     -0.58969839
    N      2.16032330     -0.13387452     -1.01284776
    C     -3.74303761     -2.11798467     -0.81999522
    H     -3.09104828     -1.55533978     -1.45500769
    H     -4.68995985     -1.62417867     -0.75371563
    H     -3.87955022     -3.09791514     -1.22742581
    C     -3.12207745     -2.22811708      0.58495294
    N     -2.65974438     -2.31011566      1.63100070
    C      4.43818482     -0.76826182      1.35663837
    H      4.49068073      0.09600557      0.72799997
    H      4.49380671     -1.65109166      0.75462778
    H      5.25442315     -0.75625900      2.04838255
    C      3.10780059     -0.75882082      2.13225985
    N      2.11726906     -0.75179156      2.70974530
    C     -1.01774289     -1.11326516      4.37408823
    H     -1.82859815     -1.78320574      4.17763584
    H     -0.96320626     -0.91768340      5.42464648
    H     -0.10103728     -1.55687512      4.04581985
    C     -1.24858062      0.20792604      3.61727401
    N     -1.42044981      1.19161294      3.05379142
    C     -2.51542908      1.89548483     -3.55976544
    H     -3.37828266      1.32378296     -3.28858128
    H     -2.67011801      2.34087481     -4.52028519
    H     -2.35334835      2.66338869     -2.83247417
    C     -1.28420142      0.97207038     -3.61439336
    N     -0.36749647      0.28454635     -3.65506632
    C      1.36896587      2.76038920      2.10486420
    H      0.53824939      2.72288372      1.43151165
    H      1.30790587      3.64921312      2.69745410
    H      1.34844302      1.90302060      2.74470558
    C      2.68199727      2.76909690      1.30020730
    N      3.65960883      2.77558018      0.70110366
    C      0.42348987     -3.70230595      1.45775895
    H      0.45821398     -4.44720821      2.22510180
    H     -0.38254283     -3.91767841      0.78781487
    H      0.27147509     -2.74039847      1.90106991
    C      1.75238768     -3.70465591      0.67953976
    N      2.74181250     -3.70640556      0.10012021
    C     -2.83419293      3.31725578      0.95796414
    H     -3.26803838      4.20690061      0.55150332
    H     -1.76743921      3.39562851      0.92979853
    H     -3.15614964      3.19407309      1.97091477
    C     -3.28173154      2.10132296      0.12560810
    N     -3.61494438      1.19600571     -0.49411880
