60
Energy:   -251.67201468
    C      2.00897964      2.80351737     -3.02915566
    H      1.94386871      3.33579258     -3.95508430
    H      2.25450324      1.78017783     -3.22252953
    H      2.76898897      3.24324014     -2.41765848
    C      0.65547257      2.87741096     -2.29829430
    N     -0.35227497      2.93242810     -1.75413479
    C      2.24758001     -2.65030482     -3.35047727
    H      2.26614839     -3.06456473     -4.33685657
    H      3.00533991     -3.11440268     -2.75439658
    H      2.42978463     -1.59721299     -3.40242113
    C      0.86800670     -2.90179168     -2.71397757
    N     -0.15914833     -3.08903507     -2.24007462
    C     -0.64106251     -0.46129096      0.11460959
    H     -1.20307588     -1.20157638     -0.41550233
    H     -1.20011720      0.45017773      0.15438112
    H     -0.44776880     -0.80483945      1.10935130
    C      0.69424139     -0.21321343     -0.61135256
    N      1.68843584     -0.02850843     -1.15186437
    C     -4.41425592     -1.38073562      1.43182093
    H     -4.41057601     -1.46166774      0.36489233
    H     -4.38712008     -0.34823337      1.71128799
    H     -5.30296349     -1.83225632      1.82070009
    C     -3.17953081     -2.10043428      2.00548261
    N     -2.26022183     -2.63628265      2.43259981
    C      4.30925158     -0.20376315      1.08141804
    H      4.10744557      0.34857676      0.18749682
    H      4.65568122     -1.18311860      0.82500334
    H      5.06014459      0.30227249      1.65149410
    C      3.02037476     -0.31749322      1.91655995
    N      2.06074738     -0.40217042      2.53836107
    C     -0.62357321     -0.41234932      4.53380351
    H     -0.36019046     -1.31590177      4.02476258
    H     -1.22551261     -0.64610729      5.38698887
    H      0.26595478      0.09018385      4.85176494
    C     -1.41656146      0.50125704      3.58086435
    N     -2.00697726      1.18147850      2.87135782
    C     -1.80708035     -0.03451452     -3.40823989
    H     -1.88814390     -0.98844733     -2.93038943
    H     -2.61787826      0.09033103     -4.09520382
    H     -1.84325744      0.73868419     -2.66948820
    C     -0.47139622      0.04592338     -4.17052438
    N      0.52308133      0.10581305     -4.73807983
    C      0.76911105      2.83267808      1.62809805
    H      0.03614881      2.48374167      0.93102566
    H      0.46899341      3.78411013      2.01488680
    H      0.85810117      2.13264946      2.43242372
    C      2.12789701      2.97305290      0.91704557
    N      3.13957492      3.07756834      0.38763468
    C      0.74489446     -3.67747100      1.26393805
    H      0.70662819     -4.64027845      1.72916668
    H     -0.04022606     -3.59911583      0.54120343
    H      0.62288975     -2.91722894      2.00693600
    C      2.10555393     -3.49870080      0.56519129
    N      3.11862675     -3.36559826      0.04494258
    C     -3.07718493      3.46183162      0.30576499
    H     -2.48712616      4.00473035     -0.40274881
    H     -2.50919499      3.30776603      1.19938141
    H     -3.96052166      4.01989691      0.53636951
    C     -3.47256552      2.09900331     -0.29254362
    N     -3.76694435      1.08431569     -0.73801157
