60
Energy:   -251.66058819
    C      2.22725641      3.28550286     -2.30394701
    H      2.58237952      4.29377374     -2.25728218
    H      2.22194984      2.95598260     -3.32192900
    H      2.87063962      2.65373289     -1.72790549
    C      0.79778870      3.21788575     -1.73504458
    N     -0.26651499      3.16754173     -1.31147087
    C      2.57834257     -2.06096858     -3.52313126
    H      2.68693345     -2.31109202     -4.55780341
    H      3.29473354     -2.60825476     -2.94679723
    H      2.74083986     -1.01168050     -3.39088810
    C      1.15710827     -2.42348590     -3.05379743
    N      0.09893473     -2.69339653     -2.70435707
    C     -0.63934353     -0.47068607     -0.02009132
    H     -1.13661591     -1.12513833     -0.70515526
    H     -1.21866565      0.41994037      0.10667429
    H     -0.52772339     -0.96100981      0.92437819
    C      0.74950068     -0.10490003     -0.57589015
    N      1.78355833      0.16744429     -0.98970764
    C     -4.49030457     -1.62741833      0.80548311
    H     -4.39570770     -1.54072411     -0.25679544
    H     -4.51269914     -0.65096189      1.24243894
    H     -5.39659910     -2.14479398      1.04181287
    C     -3.28983315     -2.41292775      1.36534319
    N     -2.39602760     -2.99777522      1.78218447
    C      4.20106519     -0.41689686      1.39080742
    H      4.10005195     -0.65406680      0.35232443
    H      4.93136066     -1.06097038      1.83435778
    H      4.51292061      0.60128740      1.49543110
    C      2.84652811     -0.61398959      2.09648705
    N      1.83801368     -0.76073408      2.62189761
    C     -1.00809868     -1.10994972      4.34252682
    H     -0.68026233     -1.92168147      3.72729103
    H     -1.67718882     -1.47807327      5.09199498
    H     -0.16177000     -0.65433166      4.81267470
    C     -1.73503027     -0.06758764      3.47266950
    N     -2.27626388      0.70849831      2.82502119
    C     -1.51440863      0.49359928     -3.51485991
    H     -1.61428711     -0.52449386     -3.20115491
    H     -2.26724469      0.71850296     -4.24118993
    H     -1.62945217      1.14005797     -2.67001955
    C     -0.12155795      0.70478227     -4.13692803
    N      0.91548269      0.86201760     -4.60008601
    C      0.56600499      2.55329034      2.11032266
    H      0.59113816      1.74212529      2.80766028
    H     -0.09241191      2.30928948      1.30295046
    H      0.21486696      3.43606375      2.60257491
    C      1.98283894      2.80140714      1.56021393
    N      3.03773622      2.98614137      1.15063298
    C      0.71483755     -3.82134438      0.72517529
    H      0.65706142     -4.84476283      1.03205762
    H     -0.00777709     -3.63778669     -0.04231005
    H      0.51490006     -3.18603977      1.56261911
    C      2.12577994     -3.52693590      0.18280527
    N      3.17629067     -3.30773541     -0.22101387
    C     -3.16806042      3.34879498      0.55662723
    H     -2.53878444      4.00088436     -0.01231159
    H     -2.66555302      3.06465679      1.45754392
    H     -4.07859965      3.85506584      0.80056825
    C     -3.48648717      2.09056653     -0.27226695
    N     -3.72357035      1.15375825     -0.88941634
