60
Energy:   -251.65283978
    C      2.19670992      2.40296205     -1.69222101
    H      1.92609744      3.42957108     -1.82542375
    H      3.14227049      2.34501205     -1.19477141
    H      1.45214935      1.91161824     -1.10136579
    C      2.29690006      1.71598373     -3.06685650
    N      2.37149616      1.20449715     -4.09033511
    C      3.48302807     -2.08715431     -3.33214839
    H      2.92264297     -2.98892854     -3.19921241
    H      4.47238206     -2.32729752     -3.66140361
    H      3.00239251     -1.47330658     -4.06500548
    C      3.55738955     -1.32712733     -1.99482668
    N      3.61275506     -0.76125270     -0.99912988
    C     -2.09196942     -0.73820716      1.86266136
    H     -2.67365542      0.05602373      2.28187357
    H     -1.60467272     -1.27661283      2.64851144
    H     -2.73261883     -1.40143589      1.31989523
    C     -1.03406126     -0.15184961      0.90944829
    N     -0.24640055      0.28472023      0.19973784
    C     -3.06409227     -3.86609101     -1.72293688
    H     -2.03404052     -4.04835990     -1.94804046
    H     -3.67301429     -4.21708007     -2.52973286
    H     -3.32973134     -4.38302141     -0.82453945
    C     -3.28788301     -2.35460217     -1.53079326
    N     -3.45450538     -1.22923001     -1.38773360
    C      2.85742368      0.50665833      2.01580041
    H      3.79409135      0.02391593      1.83002195
    H      3.01621599      1.36970510      2.62803761
    H      2.41913308      0.80452549      1.08624375
    C      1.91158937     -0.46940344      2.73988665
    N      1.20737273     -1.19612579      3.27900176
    C     -0.93337938      0.92391865      5.20226923
    H     -0.72078145     -0.10470408      4.99821635
    H     -1.80842301      1.22107091      4.66291936
    H     -1.10025972      1.05233190      6.25134506
    C      0.26023228      1.79187180      4.76232772
    N      1.14893041      2.43810238      4.43477127
    C     -0.74504149     -0.03351831     -3.26657778
    H     -0.34267090      0.28141366     -4.20669263
    H     -0.44477412      0.65250434     -2.50230588
    H     -1.81316573     -0.05662569     -3.32553323
    C     -0.21901353     -1.44088984     -2.92864297
    N      0.17263820     -2.48874193     -2.67703515
    C      0.23976804      3.73445219      1.43399150
    H      0.84879011      2.92158873      1.09747214
    H      0.73336507      4.24149204      2.23659455
    H      0.07839337      4.41742674      0.62627678
    C     -1.11492278      3.19163582      1.92568571
    N     -2.12355166      2.78748435      2.29177439
    C      1.35657940     -3.11840766      0.38649782
    H      1.36718676     -2.08633802      0.10432781
    H      1.72420040     -3.71336349     -0.42330553
    H      1.97978977     -3.25996056      1.24467653
    C     -0.08474632     -3.54379519      0.72298795
    N     -1.15787884     -3.86051554      0.97352014
    C     -3.40507649      2.15773566     -0.96237668
    H     -3.79403029      1.57408228     -1.77043846
    H     -4.11104653      2.91743170     -0.69899990
    H     -3.23005311      1.52508287     -0.11738179
    C     -2.08110511      2.81491411     -1.39459918
    N     -1.09534824      3.30421333     -1.71640847
