60
Energy:   -251.64083253
    C      2.78709088      1.20401330      0.18890975
    H      2.66894973      0.15528885      0.36531802
    H      1.96880735      1.73422364      0.62957760
    H      3.70504832      1.53796867      0.62563282
    C      2.81366993      1.46964041     -1.32777604
    N      2.83345925      1.66741186     -2.45701755
    C      0.00249161     -0.81562743      4.71119900
    H     -0.91375805     -0.32345166      4.45990287
    H      0.18040359     -0.72317742      5.76224582
    H     -0.06582845     -1.85119484      4.45075401
    C      1.16347783     -0.16660740      3.93500057
    N      2.02788484      0.31661750      3.35708555
    C     -0.27766298      3.28354771     -2.94971324
    H      0.25254464      4.12074554     -3.35329701
    H     -1.30547305      3.33759843     -3.24226080
    H      0.15171375      2.37664804     -3.32128786
    C     -0.17946876      3.30607367     -1.41301207
    N     -0.10635871      3.32284528     -0.26886820
    C      3.71317684     -2.57766881      1.85096284
    H      4.36770249     -3.10038814      2.51674122
    H      3.84182954     -1.52319623      1.97916250
    H      3.94403797     -2.84495747      0.84093363
    C      2.25371540     -2.95830081      2.16191557
    N      1.16708002     -3.24169864      2.39343401
    C      1.75169901     -1.50226237     -3.77363620
    H      2.09970233     -2.29740805     -4.39936555
    H      2.24462866     -0.59240023     -4.04579485
    H      0.69528353     -1.38663526     -3.89819862
    C      2.06183328     -1.83378552     -2.30206930
    N      2.29274234     -2.08061957     -1.20642086
    C     -0.51107470     -0.37051442      0.79974327
    H     -1.42529557     -0.83136144      1.11074234
    H     -0.38813736      0.56018548      1.31314683
    H      0.31033447     -1.01627490      1.03034998
    C     -0.55443321     -0.11733850     -0.71868420
    N     -0.58671559      0.07116247     -1.84922247
    C     -3.60094143     -0.99255628     -3.24604315
    H     -3.31127037     -1.87217934     -3.78200409
    H     -2.89952028     -0.20855159     -3.44160416
    H     -4.57580970     -0.68632652     -3.56346133
    C     -3.62429184     -1.29567975     -1.73635083
    N     -3.64167727     -1.52136896     -0.61231627
    C     -3.40982844      1.95497844      0.53440235
    H     -4.16587094      2.52276027      1.03532522
    H     -2.44420646      2.28221187      0.85904301
    H     -3.53113439      0.91732304      0.76560620
    C     -3.53687659      2.16027400     -0.98655541
    N     -3.63146970      2.31312588     -2.11897759
    C     -0.83960174     -3.85765559     -0.46138661
    H      0.09517601     -3.45858150     -0.12697579
    H     -0.87861241     -4.90463841     -0.24412127
    H     -1.64104096     -3.35876343      0.04230068
    C     -0.97536361     -3.64318273     -1.98032378
    N     -1.07644450     -3.48349794     -3.11124154
    C      0.86842595      3.78157792      2.96248853
    H      1.73580403      3.17896425      2.79098864
    H      1.02076983      4.38680437      3.83162107
    H      0.69846217      4.41157426      2.11448145
    C     -0.35459276      2.87109206      3.17891570
    N     -1.26518579      2.19319395      3.34005556
