60
Energy:   -251.62539473
    C     -1.00396655      3.53217011     -1.44582569
    H     -0.38322617      3.22548928     -0.63002644
    H     -1.97223892      3.79874782     -1.07665902
    H     -0.56255004      4.37702751     -1.93189824
    C     -1.13909032      2.37392346     -2.45171151
    N     -1.23969611      1.51155618     -3.20063921
    C      1.75572622      0.11744448     -4.02049661
    H      1.57245230      1.16880494     -3.94334713
    H      0.83692359     -0.41525973     -3.89039266
    H      2.16279180     -0.10381139     -4.98498743
    C      2.75602426     -0.31059050     -2.93063887
    N      3.50079161     -0.62928200     -2.11919024
    C      4.09813069      2.26074180     -0.03839324
    H      4.44603662      1.26798776     -0.23409984
    H      3.67881018      2.30434063      0.94505404
    H      4.91713603      2.94582402     -0.10761515
    C      3.02215690      2.64081015     -1.07252497
    N      2.22104550      2.92378831     -1.84248306
    C     -2.62127991      3.14512362      2.06141102
    H     -1.79700828      3.69733136      1.66073275
    H     -3.15317913      3.75555582      2.76095004
    H     -3.27807958      2.85799965      1.26700992
    C     -2.09677614      1.88503284      2.77461999
    N     -1.70625924      0.94683798      3.30563649
    C      0.16840800      0.26382717      0.21499569
    H      1.00240021      0.88215809     -0.04389433
    H      0.31699074     -0.14435738      1.19285439
    H     -0.72672777      0.84994911      0.20539778
    C      0.04256071     -0.88220600     -0.80596975
    N     -0.05113831     -1.73547979     -1.56612493
    C     -2.75326434     -2.03152819      2.35354552
    H     -2.90859905     -1.71347812      3.36330562
    H     -3.40829577     -2.84808425      2.13202999
    H     -2.95840349     -1.21908869      1.68814409
    C     -1.29169322     -2.48335861      2.17674293
    N     -0.20348710     -2.81976689      2.04510535
    C     -0.74969313     -4.88658100     -0.90703219
    H     -0.09450233     -4.55431746     -0.12906938
    H     -0.36096485     -4.58040056     -1.85573812
    H     -0.82373501     -5.95366027     -0.87948722
    C     -2.14559378     -4.26966551     -0.70093351
    N     -3.18490526     -3.81034389     -0.54748368
    C     -3.50913744     -0.99341532     -2.39496276
    H     -4.32266020     -1.67453687     -2.25656360
    H     -2.59561044     -1.54289021     -2.48685867
    H     -3.67134958     -0.41993740     -3.28361871
    C     -3.41960440     -0.04765419     -1.18289028
    N     -3.35294298      0.65650797     -0.28044722
    C      1.64632136      1.48964589      3.86218028
    H      2.70656637      1.34890937      3.89338789
    H      1.16630068      0.54805330      3.69519933
    H      1.31340465      1.89964483      4.79275345
    C      1.29038259      2.45730048      2.71826062
    N      1.02537000      3.17776331      1.86656043
    C      2.91543289     -2.83404580      0.46346014
    H      3.87575014     -3.28200814      0.31506642
    H      2.44661208     -2.67302384     -0.48478986
    H      2.30654030     -3.48391130      1.05660746
    C      3.08439589     -1.48574325      1.18811989
    N      3.21019652     -0.48187072      1.72766200
