60
Energy:   -251.61997770
    C      1.61732045      3.01241915     -2.85363782
    H      2.07782256      3.97187207     -2.96448947
    H      1.16681790      2.72382124     -3.78027571
    H      2.35779545      2.29119876     -2.57716535
    C      0.53719618      3.08490777     -1.75834016
    N     -0.26700543      3.13887884     -0.94284126
    C      0.92293869     -2.46169921     -3.75278220
    H      0.54918708     -2.79102638     -4.69975290
    H      1.75495228     -3.07051368     -3.46643029
    H      1.23675878     -1.44155395     -3.82841092
    C     -0.18828430     -2.57972331     -2.69313424
    N     -1.01564032     -2.66759762     -1.90417818
    C     -0.08237810     -0.06227294      0.77612836
    H     -0.95503569     -0.64827267      0.57619530
    H     -0.37088278      0.94567631      0.98990966
    H      0.43649279     -0.47092776      1.61795574
    C      0.84204300     -0.08140742     -0.45540706
    N      1.53031652     -0.09565391     -1.37234117
    C     -3.90823155     -2.51915975     -0.00802474
    H     -4.06659360     -1.47997753     -0.20782948
    H     -4.83201191     -2.97007816      0.28896267
    H     -3.54402939     -3.00074829     -0.89138670
    C     -2.87493243     -2.67269269      1.12348778
    N     -2.10559427     -2.78700494      1.96595027
    C      4.78669436     -0.58120495     -0.29486959
    H      4.34734962      0.09834287     -0.99493469
    H      4.87289046     -1.54892622     -0.74318297
    H      5.75816520     -0.22886191     -0.01738470
    C      3.89677100     -0.67356139      0.95856837
    N      3.23418261     -0.74232496      1.89180990
    C     -2.07047415     -0.44098560      4.34881347
    H     -2.89625562     -0.59166201      3.68527615
    H     -2.42827347     -0.37981763      5.35536065
    H     -1.38878116     -1.26112390      4.26182543
    C     -1.34812963      0.86822804      3.98033278
    N     -0.81031129      1.84299711      3.70598216
    C     -2.43138727      0.59638114     -2.25066314
    H     -2.14513822     -0.17564776     -1.56733815
    H     -3.41502259      0.39745177     -2.62186088
    H     -2.42465909      1.53987331     -1.74600847
    C     -1.43735413      0.63591186     -3.42622065
    N     -0.69725127      0.66534428     -4.30147664
    C      1.99950643      2.71613141      2.03418588
    H      1.01016609      2.96162525      1.70885736
    H      2.32382791      3.43149757      2.76079852
    H      1.99927882      1.73926897      2.47080794
    C      2.95696577      2.73916299      0.82822520
    N      3.66983777      2.75631104     -0.06966734
    C      1.13913277     -3.57477731      0.94056655
    H      1.06688977     -4.55314308      1.36774515
    H      0.18858137     -3.28898767      0.54097250
    H      1.43291922     -2.87647500      1.69618716
    C      2.18836115     -3.58301875     -0.18666541
    N      2.96955937     -3.58915487     -1.02594084
    C     -2.72271038      3.46058604      1.30404878
    H     -2.81176287      3.94919692      0.35629921
    H     -1.70954830      3.52118560      1.64276604
    H     -3.36520199      3.93874208      2.01360527
    C     -3.12803048      1.98194364      1.15936882
    N     -3.42980972      0.88102717      1.05164802
