60
Energy:   -251.61853470
    C      1.47206751      2.52863975     -3.09783178
    H      0.63852412      2.97083483     -2.59328335
    H      1.91061502      3.24661387     -3.75895836
    H      2.19937874      2.21549129     -2.37821000
    C      0.99378098      1.30956092     -3.90819516
    N      0.63767492      0.40190132     -4.51154753
    C      1.01178095     -2.61713415     -3.14879731
    H      1.28795400     -3.63791519     -2.98559592
    H      1.78590596     -1.97535792     -2.78307497
    H      0.87355876     -2.44813690     -4.19628653
    C     -0.30092884     -2.31487971     -2.40244936
    N     -1.27830095     -2.08983754     -1.84675939
    C     -0.32155827      0.29403908      0.49804183
    H     -0.83247375      1.14312393      0.09440773
    H     -0.13518977      0.45193676      1.53978757
    H     -0.92677929     -0.57935068      0.37235599
    C      1.01661496      0.10176504     -0.23946957
    N      2.01294577     -0.04139173     -0.78858034
    C     -1.57772569      0.18617476      4.34229125
    H     -2.09973997      0.15134729      5.27566594
    H     -1.74801915      1.13281686      3.87349709
    H     -0.52964991      0.05698042      4.51475883
    C     -2.08976664     -0.94021542      3.42541654
    N     -2.47100439     -1.77886412      2.74276165
    C      4.40869948     -2.06461090      0.49207765
    H      4.06964877     -1.79149020      1.46949766
    H      4.43003893     -1.19677762     -0.13346941
    H      5.39237329     -2.48030972      0.55900600
    C      3.45020951     -3.10843803     -0.11068425
    N      2.73657016     -3.88561477     -0.55946789
    C     -4.11859518     -0.42026375     -0.01445621
    H     -4.96516787     -0.16331916     -0.61628205
    H     -4.35637470     -1.26940192      0.59161668
    H     -3.28884400     -0.65526359     -0.64784957
    C     -3.75215936      0.77027854      0.89104577
    N     -3.47933124      1.65669140      1.56523316
    C     -2.83403193      0.15896191     -3.89864179
    H     -2.01745211     -0.11931911     -4.53161672
    H     -3.61843202      0.57954055     -4.49255188
    H     -3.19935643     -0.70656687     -3.38649236
    C     -2.35455162      1.19987599     -2.86995499
    N     -1.99755673      1.97488383     -2.10405092
    C      3.17383807      1.46939097      2.27017804
    H      3.21253525      1.85412969      1.27249130
    H      3.20541854      0.40023877      2.24162396
    H      4.01092765      1.83620502      2.82661994
    C      1.86790523      1.92649757      2.94633850
    N      0.89557887      2.26683421      3.44977070
    C     -0.04134860     -3.67576875      1.45357271
    H      0.58632329     -4.47315831      1.11431163
    H     -0.56053481     -3.25114123      0.61988438
    H     -0.75023687     -4.05547790      2.15940377
    C      0.82278387     -2.59277083      2.12587516
    N      1.46616977     -1.78642965      2.62643490
    C     -1.14557984      4.04501905      0.94823211
    H     -1.32368198      5.09081088      1.08787183
    H     -1.27494379      3.53375157      1.87923674
    H     -1.83766154      3.65817209      0.22971180
    C      0.29302433      3.83247362      0.44143582
    N      1.36413053      3.67422389      0.06410295
