19
Energy:   -435.87578660
O    0.28569070  -0.51112691  -3.85467955
H    1.13874986  -0.74670042  -4.21940827
H   -0.28583246  -0.42437530  -4.61761290
O    0.45703513   0.61515063   4.02078258
H    0.72210921   1.45772126   4.38962171
H    0.29195622   0.06063508   4.78333966
O    0.12584795   1.36481797  -1.76031176
H    0.37278199   2.26667273  -1.96503947
H    0.24732617   0.89017217  -2.58261721
O    1.36263789  -0.37291590   1.59447499
H    2.27846906  -0.65018494   1.61911199
H    1.16562895  -0.11513250   2.49501208
O   -0.55537769  -1.76690748  -1.54452059
H   -0.32061592  -1.44566472  -2.41510766
H   -0.79112974  -2.68426802  -1.68273221
O   -1.82641527   0.60762055   1.60236351
H   -2.78252654   0.60822246   1.64800029
H   -1.54517217   0.93523917   2.45664696
Na  -0.29208374  -0.06133769   0.00106560
