19
Energy:   -436.36875835
O    1.43857876   0.28883629   3.62265714
H    1.33948723  -0.38384678   4.29638573
H    1.94534322   0.98099685   4.04731628
O   -0.30330261   1.64658144  -1.97250148
H   -0.34417119   2.57889400  -2.18546838
H   -0.53118753   1.20350332  -2.78980320
O   -1.25304720  -1.01550090  -3.70043763
H   -0.59681931  -1.42409727  -4.26492485
H   -2.06504389  -1.05987039  -4.20533819
O   -1.06333793  -1.50651217  -0.98939734
H   -1.32678762  -2.39722616  -0.75819462
H   -1.25727831  -1.43382355  -1.92392147
O    1.87082031  -0.27311408   0.90959451
H    1.89013318  -0.17072543   1.86110668
H    2.77625551  -0.47208574   0.67120568
O   -0.76170088   0.99578748   2.09158069
H   -0.07842033   0.78276453   2.72717550
H   -1.51529071   1.24843854   2.62496765
Na  -0.14091127   0.37979381  -0.04622266
