19
Energy:   -423.40992780
O    0.71975983   0.62111562  -1.19743930
H    1.19870012   0.05565086  -1.80332513
H    0.33334585   1.29688709  -1.75443932
O    1.65225813  -3.44814830   0.00130477
H    2.49532812  -3.60262823   0.42745122
H    1.57202579  -4.15763233  -0.63621153
O   -0.67466826  -2.09719132   0.51656017
H    0.08799073  -2.65347102   0.35801678
H   -1.42028270  -2.69638900   0.48116108
O    0.68957883   0.33088033   2.98849490
H    0.41830824  -0.35092398   3.60313869
H    0.94104198   1.06863948   3.54411128
O   -1.74681930   1.85278144   0.34425894
H   -1.64344792   2.22626191  -0.53098876
H   -2.50577862   2.30656710   0.71071654
O   -0.64205717   2.77108968  -2.36208454
H   -0.01052349   3.47541645  -2.50810125
H   -1.25822455   2.84637076  -3.09071501
Na  -0.23177481   0.15572611   0.84503306
