19
Energy:   -423.16357189
O   -0.96507497   1.81376030   2.80823614
H   -0.84541252   2.76048434   2.88324498
H   -1.64426726   1.60612085   3.44996469
O   -1.01857622  -1.70620287   1.54243305
H   -1.14433342  -2.12023748   0.68862258
H   -1.32693315  -2.35733630   2.17264977
O   -2.09754574  -1.60024219  -1.60942123
H   -2.97152210  -1.23512317  -1.74757066
H   -2.09483532  -2.41375630  -2.11382116
O    2.04921482   0.57696412  -2.37141328
H    1.92281432   1.31914625  -2.96253125
H    2.47278206  -0.09039409  -2.91127963
O   -0.22276710   0.27474277  -0.82494915
H   -0.87302905  -0.31756138  -1.20252964
H    0.46866623   0.32426871  -1.48502413
O    2.35641157   0.85136361   0.90565165
H    2.53553678   0.87252988  -0.03440048
H    3.20319839   1.02835719   1.31535544
Na   0.15810080   0.33640957   1.41087390
