19
Energy:   -435.86387806
O    0.37503091  -0.11713241  -4.08082570
H   -0.32599415  -0.44928973  -4.64159948
H    1.03230089   0.21741087  -4.69099684
O   -0.42460997   0.57605824   3.87795778
H   -0.70103228   1.40733415   4.26370759
H   -0.28555251  -0.00211188   4.62803390
O   -0.62089491   1.07571252  -1.72271445
H   -1.21246792   1.79167522  -1.95438368
H   -0.26223662   0.78040960  -2.55960887
O    1.34236177   0.74829168   1.72924606
H    2.15705198   1.22868145   1.87668205
H    0.89106882   0.77652230   2.57291042
O    0.97898427  -1.85512687  -1.43022698
H    0.82618394  -1.75960605  -2.37031191
H    1.38893297  -2.71536927  -1.33991130
O   -1.57779289  -0.47793136   1.60516177
H   -2.46008282  -0.80092822   1.78810806
H   -1.24811100  -0.18591560   2.45502558
Na   0.09808494  -0.23836201   0.00612801
