19
Energy:   -433.29425919
O   -1.15565695   0.78594495  -3.69283645
H   -1.94218844   0.48379742  -4.14704668
H   -0.66300273   1.26523533  -4.35902292
O    1.98685414  -0.16099157   3.86220590
H    1.80572488   0.54791200   4.47936047
H    2.61250929  -0.72305351   4.31923309
O   -1.40398331   1.42947152  -0.97765377
H   -1.83931083   2.26299738  -0.79889012
H   -1.38810934   1.36698834  -1.93268033
O    1.74149907   0.18621751   1.15430839
H    1.84276377   0.06837345   2.09881360
H    2.59086602   0.51621373   0.86120408
O    0.15014897  -1.09809780  -2.10837861
H    0.50374821  -1.84137142  -2.59699273
H   -0.23571960  -0.53274532  -2.77749285
O   -1.31483457  -1.27206287   1.84836137
H   -0.86903706  -1.67061619   2.59579142
H   -2.24137941  -1.28177604   2.08847001
Na  -0.20652925  -0.29521428   0.04092553
