19
Energy:   -423.87520316
O    1.06287214   1.05931062  -4.09488909
H    1.21122261   1.93700525  -4.44684949
H    1.49670083   0.47494311  -4.71661180
O   -0.29090560   0.35827005   3.77743864
H   -0.48880063   1.05600359   4.40212841
H   -0.01163571  -0.37844146   4.32103438
O   -0.76374681   0.35674719  -2.22005521
H   -0.12065069   0.59812242  -2.88668647
H   -1.61131682   0.51167749  -2.63701269
O    1.44921582   0.88403083   1.03179599
H    2.19350367   1.41387844   0.74626324
H    1.52453413   0.85873014   1.98569267
O    0.16904937  -2.52952083  -0.24809036
H    0.72394490  -2.98894596  -0.87836915
H   -0.21775569  -3.22550467   0.28315364
O   -1.83525058  -0.11170220   1.56479699
H   -1.40900363   0.09889423   2.39557646
H   -2.76717384  -0.15839978   1.77826884
Na  -0.22651001  -0.25318860  -0.06133877
