19
Energy:   -432.67448005
O   -0.31786415   1.42737873  -3.50975203
H   -0.70588768   0.79787967  -4.11753532
H   -0.38043874   2.26826310  -3.96277493
O    2.45735369   2.12084228  -1.17513274
H    3.14180447   2.25570083  -1.83055027
H    2.79611698   2.54075834  -0.38447366
O   -1.32686644  -1.30778520   1.23905491
H   -2.18418041  -1.73323524   1.25444506
H   -0.92021174  -1.55727104   2.06888659
O    0.34840146  -1.30555144  -0.95636760
H   -0.21134548  -1.47221458  -0.19798867
H    0.69623079  -2.16573823  -1.19158087
O   -0.22656412  -2.05229866   3.61459845
H    0.24327502  -2.86328958   3.80896086
H   -0.37003567  -1.64718385   4.46989357
O   -0.91117680   1.30830539   0.45604055
H   -1.40565404   1.95656822   0.95751779
H   -1.14127007   0.46942678   0.85550469
Na   0.45752017   0.96468293  -1.37357478
