19
Energy:   -422.00920781
O   -3.52164447  -0.78299173  -0.32511100
H   -4.34400696  -0.64147750  -0.79407316
H   -3.78370767  -1.18576185   0.50273618
O   -1.01995582  -0.83092404  -1.42981960
H   -1.89592177  -0.82427092  -1.04398125
H   -1.05659491  -1.51675891  -2.09654290
O    2.02004625   1.29227642  -2.38495629
H    2.80371849   0.87129657  -2.73831961
H    1.94471514   2.11022427  -2.87640150
O    1.34164494  -1.94052594   2.77792263
H    1.12096593  -1.82455257   3.70208864
H    1.57247844  -2.86625603   2.70064690
O    2.08123796   0.02167101   1.03623778
H    2.94622327   0.30553503   1.33196311
H    1.82960446  -0.66461959   1.65423265
O   -0.67116499   2.36183459   0.07644653
H   -1.58469807   2.54280147  -0.14477769
H   -0.46280970   2.98982207   0.76814852
Na   0.62512836   0.58252618  -0.65460548
