19
Energy:   -423.93125280
O   -2.79277575   3.11230060  -0.88360498
H   -3.14734340   3.72762460  -0.24181841
H   -2.93381836   3.53912567  -1.72868438
O   -2.22584337   0.41220334  -0.67837099
H   -2.47326711   1.33315118  -0.76124684
H   -3.04837142  -0.06716157  -0.77781321
O    2.72768950  -3.10516231   0.73926439
H    2.66340781  -4.03005334   0.50119656
H    3.52831989  -3.04663081   1.26060582
O    0.29196367   2.27239581   0.74211331
H   -0.06652701   3.03447460   0.28719332
H    0.93024269   2.63715213   1.35512602
O    0.54257695  -1.61092963   1.59946324
H    1.27435580  -2.15542380   1.30919153
H    0.31843884  -1.95187776   2.46534333
O    1.34124281  -1.08412407  -1.54653866
H    2.03949604  -1.67126088  -1.25680665
H    1.15597790  -1.35667141  -2.44521920
Na  -0.07093913   0.01430151   0.08541007
