19
Energy:   -428.57880154
O   -0.35224764   2.27264420  -0.38610789
H    0.37626105   2.55199977  -0.94060533
H   -1.02525345   2.94004271  -0.51980254
O    1.04433759   0.79196026   1.92878272
H    0.81796882   1.72075370   1.97707125
H    1.29939910   0.56036740   2.82183379
O   -2.14601494  -0.41670450   1.03584873
H   -2.31015288  -1.25969593   1.45852594
H   -2.86215215   0.14441584   1.33337740
O    0.43746584  -2.34213589   0.41836649
H    0.96822617  -2.81661885   1.05820338
H    0.25375999  -2.98596773  -0.26571287
O    2.07581073   0.46151272  -0.95711393
H    2.66126299   0.23911105  -1.68100272
H    2.66119089   0.63885855  -0.22083248
O   -1.05537228  -0.76221142  -2.03893438
H   -1.99924070  -0.92096433  -2.05084138
H   -0.80063738  -0.76053662  -2.96161481
Na  -0.05277370  -0.06722606  -0.01116846
