19
Energy:   -424.63535478
O   -0.79737707  -0.86139144   0.48938951
H   -1.52621672  -0.68160411   1.08327597
H   -1.02120611  -1.69769871   0.08107276
O    0.84269774  -0.88049851  -2.16536267
H    1.27202851  -0.85738648  -3.02056602
H    0.08350825  -1.44927521  -2.29325417
O   -1.21665043  -3.18625760  -0.92573702
H   -0.79876045  -3.97182911  -0.57292371
H   -2.03598975  -3.50115493  -1.30751522
O    0.36818555   2.47621936   0.30679983
H   -0.48605252   2.51389442   0.73702041
H    0.59412286   3.39153253   0.14131268
O   -2.04017511   2.53808449   1.53910758
H   -2.15543570   2.79579959   2.45372760
H   -2.83109748   2.85103876   1.10009360
O    3.19013001   0.08289588   0.69318701
H    3.76791705  -0.67917746   0.65271231
H    3.68058497   0.72920769   1.20109136
Na   1.03822964   0.33308839  -0.17962439
