19
Energy:   -428.26108016
O    1.00252185  -1.75194151  -0.44156289
H    1.86760893  -1.43392006  -0.18326357
H    1.14865329  -2.66196743  -0.69988495
O    3.30296259   0.86774614   0.11112251
H    4.15232587   0.57524341   0.44166150
H    3.51092543   1.59720456  -0.47272140
O   -0.93491115   0.04368164  -2.42541445
H   -1.55024701   0.49570373  -3.00270958
H   -0.30506763  -0.36520170  -3.01899966
O    0.77317918   0.93195819   1.18139565
H    0.86394908   1.08023896   2.12267429
H    1.66813903   0.97379288   0.84445562
O   -2.00818382  -1.60742121   1.34630290
H   -1.83223409  -2.44997300   1.76508687
H   -2.85164713  -1.33231582   1.70563355
O   -2.43371006   1.43991917   0.21155561
H   -3.38193929   1.54222721   0.13015382
H   -2.12098262   2.30463081   0.47746383
Na  -0.79924047  -0.23470982  -0.09462291
