19
Energy:   -432.58100472
O    1.94024674  -0.56165685  -1.36030301
H    2.28459551  -1.06337946  -0.62143212
H    2.68733058  -0.45934057  -1.94990368
O   -1.30546451   2.08070816  -0.52386706
H   -1.49707424   2.13216014   0.41254645
H   -1.58934966   2.92526448  -0.87367514
O   -1.70508467   1.82126950   2.23819605
H   -1.28370754   2.43379600   2.84109276
H   -2.59274558   1.71901723   2.58146624
O   -0.34917259  -0.40454621   1.18571696
H   -0.79833186   0.23545270   1.73788468
H    0.06819987  -1.00415292   1.80418593
O   -1.43929393  -0.91989179  -2.78365855
H   -2.33559947  -0.74668855  -3.07152806
H   -1.13480328  -1.62333324  -3.35697122
O    2.83160128  -2.00090439   0.78953583
H    3.50037023  -1.70603006   1.40762084
H    2.95065856  -2.94946050   0.74159304
Na  -0.24538801   0.09423098  -1.07204091
