19
Energy:   -422.72647686
O   -0.45700180  -0.61783854  -0.57609360
H   -0.16991868  -0.43144997  -1.47000323
H   -1.22690946  -1.17647614  -0.68285541
O    1.86415549  -0.87587439   2.30391012
H    2.44823920  -0.77085800   3.05494249
H    2.02038480  -1.77055903   2.00164592
O    0.71690657   0.34525891  -2.96464170
H    0.17893907   0.76303355  -3.63716469
H    1.27476508  -0.26421938  -3.44792416
O   -2.70158107  -2.15312215  -0.80973438
H   -2.74774432  -3.10878211  -0.83827968
H   -3.61433202  -1.87033363  -0.75362551
O    1.52308433   1.99440341  -0.50153375
H    1.57664598   1.70310025  -1.41175651
H    1.95759517   2.84728516  -0.49654408
O   -0.76238376   1.46512130   2.82587319
H   -1.13649604   1.06656580   3.61163739
H   -1.32509380   2.21871036   2.64784850
Na   0.54225552   0.62016411   1.11968085
