19
Energy:   -430.69721160
O    0.79190764  -2.48297296  -1.47197131
H    0.39184256  -3.24262298  -1.89518712
H    1.70638613  -2.73433955  -1.34244995
O   -0.09057807  -1.63784992   1.55302144
H    0.07442970  -2.11019327   0.73699690
H   -0.10028740  -2.31813329   2.22633571
O    0.16441467   0.14281386  -2.24404516
H    0.18638173   0.26720873  -3.19287350
H    0.37171731  -0.78320301  -2.11854529
O   -1.68849874   0.90157492  -0.35359543
H   -2.59508362   0.94410727  -0.65777748
H   -1.18516718   0.66267781  -1.13193813
O    1.58257458   1.12038459  -0.02031797
H    2.44941558   1.50983671  -0.13497220
H    1.27810076   0.94605172  -0.91089957
O   -0.86427594   2.35850500   2.95570484
H   -1.27459850   2.32514167   3.81985421
H   -0.96032616   3.26992886   2.67945724
Na  -0.20452636   0.72341493   1.43766740
