37
Energy:   -678.38904598
O    1.73288923   1.37474975  -0.85653803
H    0.91253062   1.76781723  -1.15443326
H    1.94582083   0.72618978  -1.52755363
O    0.13954833  -0.33442066   3.94520088
H    0.16159322  -0.58954655   4.86751138
H   -0.76659826  -0.06683483   3.79181242
O   -0.50074701   2.28316665   1.48972269
H    0.28786565   2.79993592   1.65486337
H   -0.69860544   2.43586002   0.56572668
O   -1.18273429  -0.91726297   0.74850209
H   -1.71297534  -0.54612314   1.45371944
H   -1.57037052  -0.56645927  -0.05331258
O    2.29461302   2.70631319   1.52345207
H    2.97801282   3.34631656   1.72243007
H    2.38113602   2.54721416   0.58354084
O    2.04867026  -1.89863256   0.01081681
H    1.37546442  -2.56817251  -0.11059977
H    2.26314334  -1.61029993  -0.87636831
O   -2.21404788   0.60870318   2.83494817
H   -3.02005955   0.97958471   3.19414718
H   -1.75472324   1.35690546   2.45357424
O   -0.80790822   2.35478922  -1.26661565
H   -1.13437977   3.04507810  -1.84380664
H   -1.30081450   1.57510525  -1.52228760
O    2.09134576  -0.79701017  -2.53753770
H    2.67001223  -0.94636706  -3.28524719
H    1.25957890  -1.19493307  -2.79454568
O   -2.02249436  -0.06497336  -1.74767909
H   -1.49342318  -0.68993002  -2.24340553
H   -2.91171285  -0.18609292  -2.08062409
O   -0.33604045  -3.26286146  -0.41555933
H   -0.62765863  -4.07927995  -0.00978656
H   -0.73368954  -2.57447724   0.11757687
O   -0.38961250  -1.99522521  -2.85344342
H   -0.37574250  -2.55915550  -2.08012454
H   -0.60086513  -2.58524145  -3.57696606
K    1.29374520   0.10632854   1.58027564
