37
Energy:   -675.74617476
O   -0.38706537   1.98042387   3.04618348
H   -0.66432317   2.60127594   3.71990647
H   -0.05930061   2.52961574   2.33401046
O    0.11088842  -0.11636848  -3.69670907
H   -0.02696495  -0.03955041  -4.64081038
H   -0.59064220  -0.69506171  -3.39804407
O   -2.87127875   0.49211927  -0.98761543
H   -3.74309636   0.86126168  -0.84654885
H   -2.52229460   0.35733647  -0.10655044
O   -0.47069764  -2.26907501   2.21948016
H   -0.23943130  -2.50619767   1.32141526
H   -0.74057082  -3.09378479   2.62352730
O   -1.79838618  -1.61867210  -2.37139701
H   -2.30525571  -0.93215867  -1.93779070
H   -2.45601204  -2.23383186  -2.69595601
O   -1.42328509   0.14555174   1.28391153
H   -1.27384217   0.77886662   1.98591646
H   -1.29843617  -0.70753160   1.69971606
O   -0.41258973   1.61697593  -1.57554761
H   -1.33084397   1.38383942  -1.43884220
H   -0.19637377   1.24843938  -2.43208910
O    1.33543683  -0.23786082   2.92435449
H    0.79185370   0.47187501   3.26644261
H    0.77541258  -1.01275563   2.97064409
O    3.63584728   0.21871533   1.41588280
H    3.16867099   0.01366580   2.22577961
H    4.56016990   0.21534950   1.66457582
O    0.15776989  -2.19668199  -0.48441310
H    0.92684165  -2.23554349  -1.05296411
H   -0.58251636  -2.12333351  -1.08676525
O    0.59907696   2.98852259   0.63904441
H    1.06015395   3.81840980   0.51686802
H    0.13051424   2.85084969  -0.18419735
O    2.14889254  -0.97310826  -2.05623932
H    1.57308420  -0.70043797  -2.77061144
H    2.98702934  -1.15700291  -2.48043422
K    1.23008538   0.29236412   0.21540295
