37
Energy:   -675.62975827
O    3.05656423   1.85277968  -1.06901710
H    2.58333877   1.78140191  -1.89798919
H    3.95671362   2.05605136  -1.32326804
O   -1.24740612  -2.19773714   2.93391403
H   -0.32045931  -2.00271507   2.79619021
H   -1.25148578  -3.05371270   3.36230759
O    1.47702847   2.80327842   0.98787397
H    2.09281975   2.60486600   0.28241990
H    1.72582856   3.67870138   1.28446293
O   -1.50983177  -1.47776327  -2.30781038
H   -1.71694907  -1.58475294  -1.37943143
H   -2.26669709  -1.84285022  -2.76617514
O    1.50053118   1.25154914  -3.25460050
H    1.47381964   0.29489418  -3.23644469
H    1.50194452   1.47396469  -4.18560059
O   -0.78477719   1.14262777  -1.66206046
H   -0.06998862   1.35834754  -2.26103803
H   -1.17260522   0.34756285  -2.02770105
O   -3.26018162   0.93146114   1.24403746
H   -3.07546735   0.88277836   2.18198334
H   -4.07476155   1.43072023   1.18545637
O    1.79221092  -0.44999227  -0.20645567
H    2.37462336   0.27218967  -0.44199936
H    1.62529813  -0.90304016  -1.03296615
O   -1.96621181  -1.34174903   0.38857082
H   -1.85070535  -1.84406652   1.19514831
H   -2.66780552  -0.72250143   0.58989276
O    1.18993133  -1.09630801   2.36176805
H    1.56282180  -1.06156670   1.48087215
H    1.94767535  -1.05293548   2.94501301
O   -1.71857314   0.46565415   3.48536331
H   -1.64034567  -0.48832545   3.49129922
H   -1.71449774   0.71254005   4.41016739
O    1.19918946  -1.44677528  -2.73010039
H    1.51189954  -2.25724076  -3.13208290
H    0.25250382  -1.56622093  -2.65426577
K   -0.41479555   0.91396296   0.97982026
