37
Energy:   -674.59807315
O    1.64597195  -1.39079919  -3.12237372
H    2.25567973  -1.62086242  -3.82348654
H    0.88589664  -1.95328128  -3.27113955
O    1.75060327  -2.04420228   0.58708605
H    2.62029158  -2.43878596   0.65172212
H    1.21388069  -2.71432490   0.16388823
O   -0.42606205   3.78485609   0.05684013
H   -0.51492545   4.73252306   0.15814391
H   -0.94127103   3.41737371   0.77499627
O   -1.13463821   0.00770396   0.78438871
H   -1.42602429   0.82264035   1.19329541
H   -0.81549389  -0.52541305   1.51251302
O    0.72820066   1.43712255   3.34316709
H    1.20841446   1.58385868   4.15808738
H    0.64304986   0.48563155   3.28278442
O    0.14108052  -3.79051659  -0.69513995
H   -0.11658513  -4.70616783  -0.58826118
H   -0.19810522  -3.54465225  -1.55579993
O   -1.56342630   2.38994543   2.13573817
H   -0.82297357   2.16017281   2.69713476
H   -2.27850608   2.57373788   2.74492870
O   -0.43715889   2.14208788  -2.15738337
H   -0.51496502   2.78444805  -1.45201009
H   -0.43414022   2.66513294  -2.95903579
O   -0.74616057  -2.77273485  -3.10206478
H   -1.33992369  -3.11994105  -3.76774117
H   -1.19041265  -1.99391298  -2.76694027
O   -1.53476258  -0.44576670  -1.91162650
H   -1.73707090  -0.40564213  -0.97691093
H   -1.50007052   0.46965429  -2.18917418
O    0.31485442  -1.24183084   2.78877439
H    0.08503485  -1.98886206   3.34136753
H    0.89386427  -1.60726027   2.11986425
O    1.61124577   2.02224947   0.76407231
H    1.08613112   2.79297259   0.54849789
H    1.46057149   1.88305130   1.69903379
K    1.05685831   0.10853420  -0.99110685
