37
Energy:   -674.04302512
O   -0.06919265   1.89757705  -0.70604825
H   -0.84303322   1.93489096  -1.26819618
H    0.61439195   1.52527968  -1.26312868
O   -0.99149491  -2.08683533   2.87634086
H   -0.54206778  -1.63902164   3.59307652
H   -1.53789977  -2.74322747   3.30857106
O    1.95319725   0.63574279   2.24600957
H    2.41525270   0.29227226   1.48131054
H    1.87692419   1.57506576   2.07841895
O   -1.49566962  -2.22716154  -1.56563893
H   -1.87886361  -3.00859892  -1.96407316
H   -1.19517173  -1.70227291  -2.30754512
O    0.27609995  -0.10112760   4.28909376
H    1.08552376   0.10426619   3.82124940
H    0.45852190   0.13388174   5.19888752
O    1.73496786   0.56987463  -2.31060264
H    2.17146338   0.10006038  -1.59998455
H    2.44470188   1.00829005  -2.77996539
O    0.56208071   2.99990093   1.70709058
H    0.41603615   2.92848821   0.76379685
H    0.60469031   3.94169889   1.87271927
O   -2.62041495  -0.10629868  -0.15332963
H   -2.71933793   0.50780151  -0.88087829
H   -2.43018176  -0.94578015  -0.57203483
O   -2.22307924   1.50603675  -2.38134290
H   -2.78651965   1.97015849  -3.00050182
H   -1.75795329   0.86254901  -2.91595792
O   -0.56969299  -0.45002766  -3.47397410
H    0.27431972  -0.14750004  -3.13878545
H   -0.40343308  -0.65336018  -4.39443343
O    2.72645894  -0.67776428  -0.08424233
H    3.45158405  -1.29936424  -0.02068987
H    1.94590537  -1.19977884   0.10141536
O    0.30592810  -1.78461363   0.46024744
H   -0.05492289  -2.19788701   1.24460930
H   -0.27942017  -2.05810031  -0.24601334
K   -0.78438644   0.49537634   1.68198657
