37
Energy:   -674.51844872
O    1.97954343   0.06473671  -2.51497371
H    1.68473182  -0.76185090  -2.89716593
H    2.32290938   0.56308068  -3.25658342
O   -0.75837228  -2.29889914   1.96973219
H   -0.98192771  -3.04405250   2.52740708
H   -0.55265768  -1.59335265   2.58301638
O    0.81348536   3.06924634  -0.43520489
H    1.20352664   3.92235941  -0.62572455
H   -0.08852619   3.26840449  -0.18432036
O   -2.29563416  -0.51297644   0.51099528
H   -1.95298902  -1.26881753   0.98799675
H   -2.58832827   0.08968984   1.19462921
O   -0.23608764   0.04810405   3.35256341
H    0.34176200   0.37918234   2.66502518
H    0.25736243   0.17560439   4.16279951
O    3.04967702  -0.68011865  -0.08518184
H    3.98384241  -0.88542445  -0.04754677
H    2.90564083  -0.38119074  -0.98302789
O   -2.45430292   1.44231735   2.47693002
H   -3.08710133   1.60756429   3.17585167
H   -1.71666979   1.01901786   2.91618707
O   -1.85118888   2.75572070   0.11780884
H   -2.62112025   3.25662493  -0.15150969
H   -2.08329688   2.40200312   0.97643658
O   -1.21396602  -0.43241236  -3.45493013
H   -0.64656275  -1.19633941  -3.55837506
H   -1.92154627  -0.57204060  -4.08426787
O    1.19355759   0.88907331   1.19403024
H    1.96349452   0.40657753   0.89298740
H    1.29516937   1.76282168   0.81657736
O    0.61087304  -1.97803332  -0.42336501
H    1.49923558  -1.74570691  -0.15305355
H    0.17308692  -2.23645323   0.38768019
O    0.76744182  -2.34474811  -3.14821252
H    0.65826220  -2.47860711  -2.20672782
H    0.95868506  -3.21658500  -3.49398458
K   -0.44706449   0.55662996  -1.08778325
