37
Energy:   -673.96501233
O    2.15962336   1.03247475  -0.85509574
H    2.78998671   0.34138791  -0.65193846
H    1.87525575   0.84266708  -1.74915388
O   -0.10673543  -2.20897137   2.71166272
H   -0.04787267  -2.86109191   3.40987890
H   -1.00005591  -2.29402471   2.37853168
O    0.72261847   2.71690411   0.79340369
H    1.36102142   2.47807207   0.12136740
H   -0.09760084   2.83461625   0.31422108
O   -0.64008478  -1.33462226  -0.56209116
H   -1.36322061  -1.66295795  -0.02776721
H   -1.05035966  -0.71773822  -1.16819383
O    0.17033412   1.88144155   3.34393508
H    0.31141057   2.36657015   4.15694155
H    0.42048390   2.49414047   2.65237383
O    2.96849944  -1.40538834   0.20736923
H    3.76717265  -1.88731350   0.42208089
H    2.58841169  -1.88620096  -0.52787519
O   -1.84189092   0.75350546   1.74490635
H   -1.97015280   1.41386076   1.06394261
H   -1.48299946   1.24037793   2.48678502
O   -1.75177056   2.49012906  -0.41828306
H   -2.32618800   3.19755757  -0.71123589
H   -1.67894182   1.91053233  -1.17656760
O   -1.40521705   0.58486552  -2.39401049
H   -0.54345375   0.50651324  -2.80322533
H   -2.02459849   0.45641552  -3.11241085
O    1.16883108   0.05322803  -3.24408943
H    1.35054628  -0.84399696  -2.96444902
H    1.62814738   0.14200737  -4.07918141
O   -2.52229669  -1.87483403   1.39829883
H   -2.50112976  -0.94042307   1.60484169
H   -3.43226425  -2.13264183   1.54569633
O    1.48555793  -2.36665644  -1.92275307
H    1.38149848  -3.26572991  -2.23431427
H    0.67238874  -2.17957179  -1.45372530
K    0.83759679  -0.05750285   1.42298598
