37
Energy:   -680.33299478
O    1.70479557   2.24799228  -2.46498525
H    1.19893580   2.75507317  -1.82999965
H    2.36095533   2.86211341  -2.79444157
O    1.38323003  -2.68474043   1.46744479
H    1.39507453  -2.88604376   0.53172660
H    1.61089883  -3.51105656   1.89359080
O   -3.31018277   1.24694393   0.73848864
H   -3.04125774   1.04943919   1.63565254
H   -4.19996471   1.58917622   0.82449454
O    1.49798583  -0.09587879  -1.01082061
H    1.92788126   0.03402355  -0.16551170
H    1.78231802   0.64825454  -1.54153018
O   -0.03361986   3.19468627  -0.56841501
H    0.08862030   2.84777789   0.31529522
H   -0.43103198   4.05529188  -0.43554876
O    0.05966622   1.54898282   1.59659035
H    0.84485741   1.03710917   1.79073462
H   -0.56664836   1.29395926   2.27403030
O   -2.02963799   0.40622010   3.03544105
H   -2.27580138   0.14045286   3.92144511
H   -1.79303536  -0.41098482   2.59677584
O    2.30053126  -0.08345185   1.63741009
H    3.11431368   0.01711701   2.13124804
H    2.08280713  -1.01188616   1.72010097
O   -0.68699794   1.10996166  -3.30844410
H   -0.95060389   1.19992449  -4.22422270
H    0.17233887   1.52921903  -3.26377495
O    1.17689174  -2.78729537  -1.29161231
H    1.40149508  -1.85808936  -1.34020642
H    1.73452789  -3.20367075  -1.94880735
O   -1.13161140  -1.54516346   1.33911052
H   -1.47647654  -2.00377292   0.57296611
H   -0.29544100  -1.97464920   1.51964561
O   -1.52231542  -2.17819148  -1.32085961
H   -0.63950589  -2.52756356  -1.44259021
H   -2.07875079  -2.73805226  -1.86230899
K   -1.18709161   0.54058041  -0.72852371
