37
Energy:   -674.03400901
O    2.16657843   2.96765161  -0.81009256
H    2.71844170   3.57455262  -1.30339768
H    2.77007806   2.29253938  -0.49986114
O   -2.30608073  -0.87288338   2.88453911
H   -2.34368675  -1.39223602   2.08136386
H   -3.13923861  -1.04728751   3.32233243
O    0.46565548   3.13924564   1.34666673
H    1.10453965   3.22733199   0.63934809
H    0.55593320   3.94623019   1.85347805
O    3.59356094   0.87558019   0.12678868
H    3.00089567   0.19049698   0.43604702
H    4.46737049   0.55726832   0.35342995
O    0.38741434  -0.86322447   3.44698221
H   -0.54979356  -1.04222341   3.52335365
H    0.71601086  -0.91748396   4.34437403
O   -0.00146195  -1.24577577  -2.80991765
H    0.43337167  -1.22075214  -3.66228223
H    0.21827389  -0.40736281  -2.40370130
O   -2.40155404   1.51445556  -0.73580679
H   -2.66263531   0.75788764  -1.26085289
H   -3.10659615   2.14934385  -0.86255199
O    0.25527860   1.09662318  -1.44784024
H   -0.57727741   1.56851140  -1.46793623
H    0.91866975   1.78318953  -1.37877009
O   -2.66353275  -0.87076579  -2.12878510
H   -1.81227544  -1.04718161  -2.52937252
H   -3.29737276  -1.26198691  -2.72997120
O   -1.72547179  -1.69881560   0.33270597
H   -2.20161643  -1.53000247  -0.48032555
H   -1.00036628  -2.26698131   0.07262605
O    1.67653501  -0.90318834   0.98864617
H    1.43180882  -1.67174254   0.47321879
H    1.47892859  -1.14770269   1.89274588
O    0.58059183  -2.85112013  -0.63976405
H    0.85858431  -3.73752981  -0.87048013
H    0.47661589  -2.40571668  -1.48061874
K   -0.56536096   0.68121582   1.21948993
