37
Energy:   -674.46822312
O    1.00883156   1.35957735  -0.60804222
H    1.75182496   0.91441295  -0.20058509
H    0.93442855   0.95873860  -1.47408167
O   -2.21617827   1.46006632  -0.00765003
H   -1.76261777   2.30040363   0.05828878
H   -2.69331811   1.37943072   0.81822364
O   -0.37068580   3.50028485   0.36997964
H   -0.21762291   4.35030794  -0.04265135
H    0.22576462   2.90332165  -0.08180979
O   -2.12562797   0.15954957  -2.41447742
H   -2.96990954   0.17453384  -2.86525003
H   -2.26071533   0.69697779  -1.63399413
O   -0.19095565   2.26739341   2.81749113
H   -0.21586643   2.86441275   2.06970826
H    0.29946412   2.74292399   3.48800658
O    0.56398463  -2.55182070   2.29274787
H    0.33391086  -3.34527673   2.77619945
H    1.19600962  -2.84539130   1.63655235
O   -2.60861460   0.89619594   2.69072426
H   -3.30198676   0.84426857   3.34857716
H   -1.99197807   1.53844513   3.04216020
O    2.51699747  -0.24037993   1.01211838
H    2.61226378  -1.15538520   0.74769158
H    3.29641781  -0.06005925   1.53768496
O   -1.05181855  -1.69779570  -0.66331577
H   -1.56732344  -1.21696398  -1.31083983
H   -0.39700700  -2.16823969  -1.17919960
O    0.56259497   0.07218125  -3.01259836
H    0.76120620   0.49709725  -3.84700343
H   -0.38939511   0.13250255  -2.93317492
O    1.11478007  -2.51473836  -2.18197139
H    1.04510299  -1.63884579  -2.56169386
H    1.08139054  -3.10575951  -2.93417547
O    2.41725269  -2.87189298   0.22390020
H    3.10366626  -3.53237141   0.12989749
H    2.01335098  -2.82055772  -0.64239072
K   -0.33888204  -0.17983331   1.41181815
