37
Energy:   -674.17545894
O   -0.03858988   0.55758639  -1.65202315
H    0.18530822  -0.27905863  -2.05960947
H   -0.98874237   0.52384271  -1.54110212
O    1.60978920  -3.50191277   1.66571036
H    1.93028517  -4.39852650   1.76367980
H    2.12615287  -3.13981195   0.94565244
O   -1.99961670   3.19405602  -0.18097062
H   -2.35779516   4.05028336   0.05315495
H   -1.20401205   3.39350680  -0.67439182
O   -0.41701480  -2.00334868   0.39076264
H   -1.27094179  -1.76420194   0.75110885
H   -0.07304870  -2.65549686   1.00119030
O    0.33500719   3.26856411  -1.65582574
H    0.49918509   3.66172791  -2.51297199
H    0.26054273   2.33071814  -1.83226792
O    1.93345429  -1.14598434   3.05051740
H    1.86075810  -2.06642917   2.79807249
H    2.05472807  -1.16634223   3.99978558
O    2.34896497   2.53745244   0.08754600
H    1.73054874   2.96359127  -0.50591750
H    2.98067673   3.22200856   0.30789804
O   -2.78566053  -0.75786934   1.09993363
H   -2.94618839  -0.31714266   0.26553405
H   -3.65866533  -0.96015157   1.43635059
O   -2.77816562   0.76406733  -1.20958979
H   -3.43589397   0.84635092  -1.90013644
H   -2.66089756   1.65591841  -0.88235637
O    0.59374994  -2.09524654  -2.13879906
H    0.25938720  -2.75820765  -2.74288181
H    0.08413800  -2.22107241  -1.33836457
O   -0.98560798   1.30205659   1.60234862
H   -1.37448482   2.04998220   1.14890190
H   -1.68830174   0.65327008   1.64145586
O    2.71208140  -1.94332461  -0.38627345
H    2.12571560  -2.07321616  -1.13161578
H    3.59135266  -1.98958838  -0.76173792
K    1.30089916   0.18701270   0.82293983
