37
Energy:   -674.48012643
O    0.75725209  -0.93290123   3.11056230
H    1.10323872  -0.96894346   4.00231678
H    1.33642179  -0.32353795   2.65288260
O   -1.72208593  -2.19079661  -2.64489559
H   -1.89130025  -2.33143739  -1.71332781
H   -2.24151877  -2.86220295  -3.08720194
O   -1.33413936  -1.67169527   0.08804280
H   -1.66021647  -1.18434439   0.84461050
H   -0.63790506  -2.22553270   0.44124777
O    2.21117126   0.03678980  -3.11771498
H    2.78553954  -0.36395818  -3.77019792
H    2.42482037  -0.41393519  -2.30074932
O    0.86812912   2.42927704  -2.68355178
H    0.88210956   3.14735622  -3.31632242
H    1.55417922   1.83250155  -2.98259380
O   -2.08698905   2.26013822   1.12772868
H   -2.05378328   1.45385359   1.64254351
H   -2.47516842   2.90596643   1.71802906
O    1.94953184  -1.00571621  -0.58019707
H    2.22826729  -0.41165303   0.11667261
H    1.71122426  -1.81372747  -0.12570929
O   -1.81333422  -0.18448849   2.38859588
H   -2.42065124  -0.54117322   3.03680409
H   -0.94512525  -0.40142519   2.72827736
O    2.29049911   0.72403275   1.55703825
H    3.03157961   1.30309172   1.73514570
H    1.66458411   1.27348206   1.08526741
O    0.42302663   1.92317651   0.01287421
H    0.55308136   2.43514281  -0.78537896
H   -0.40880121   2.23776848   0.36688859
O   -2.56931948   1.44876366  -1.46435898
H   -2.57084865   1.80374965  -0.57541890
H   -3.42812434   1.68153871  -1.81720717
O    0.87835924  -2.89998664   1.15897264
H    1.10281982  -3.77765425   1.46808243
H    0.89859925  -2.35582297   1.94618804
K   -0.35460349  -0.00120988  -1.90890284
