37
Energy:   -675.97047736
O    1.85586443   1.86881536  -1.61155501
H    2.34976895   2.56412627  -2.04610410
H    1.57995168   1.29017806  -2.32238753
O   -1.21902114  -2.58240181   2.06961943
H   -1.60134325  -3.24650070   2.64323456
H   -1.79260802  -1.82228758   2.16686288
O   -1.08116699   2.48203008   2.93253542
H   -1.37499334   3.37584432   3.10858665
H   -0.65644327   2.53330263   2.07625700
O   -2.37785504   1.00330662  -0.63176572
H   -3.12778416   1.46815536  -1.00291772
H   -2.13095250   0.36963338  -1.30535996
O    0.72261075   0.73535555   4.07123551
H    0.10886018   1.45079007   3.90481575
H    1.03374126   0.88870364   4.96337564
O    2.70312517  -0.23447207  -0.00858413
H    2.79422222  -0.92012414  -0.67025959
H    2.61652573   0.57497018  -0.51210734
O   -2.06478468   0.02785893   1.95201354
H   -2.37015752   0.32545555   1.09503307
H   -1.99235464   0.82812969   2.47216011
O    0.01135982   1.85179926   0.45101321
H    0.64699281   2.02046556  -0.24451122
H   -0.80956693   1.68052634  -0.01048078
O   -1.39859517  -0.86748438  -2.38774697
H   -0.60549223  -0.55576333  -2.82369371
H   -1.89418485  -1.30850059  -3.07776684
O    1.06741837  -0.11701946  -3.38625264
H    1.56008073  -0.84267773  -3.00293069
H    1.32294167  -0.11425867  -4.30871243
O   -0.00648378  -2.19437994  -0.39667662
H   -0.56045296  -2.61680022   0.25976157
H   -0.62228445  -1.83843310  -1.03724140
O    2.24571019  -2.15197625  -1.96952337
H    2.69390025  -2.98540011  -2.11361426
H    1.49367058  -2.37557336  -1.42118715
K    0.71017913  -0.52777911   1.72898710
