37
Energy:   -675.04467244
O    0.42513767  -2.92604097  -0.04988719
H    0.83877298  -3.78643312   0.01984815
H    0.48606313  -2.70508606  -0.97924120
O   -1.77995914  -2.03315526   1.33577841
H   -2.39814622  -2.74140483   1.51594256
H   -1.05148554  -2.45948870   0.88433864
O    0.91794737   3.97322564  -0.00404264
H    1.02669145   3.53252829  -0.84677178
H    1.16007591   4.88317841  -0.17606466
O   -1.30186827   0.15781030   2.99614024
H   -0.44402323   0.10017014   3.41686742
H   -1.44909081  -0.71459241   2.63080358
O    1.45851357   0.57341607   3.19124863
H    1.81717118   0.01526446   2.50127518
H    2.16188663   0.63842837   3.83721426
O    2.75635142  -0.26865913  -1.82648463
H    3.59330462  -0.36164615  -2.28156110
H    2.19114819  -0.92978082  -2.22610352
O   -2.70510584   2.11356013   1.65957481
H   -2.51442618   1.50923239   2.37697366
H   -3.38932743   2.68723844   2.00448908
O    1.67293569  -0.58073359   0.69626190
H    1.27526687  -1.43995495   0.55544285
H    2.22027692  -0.44008523  -0.07631007
O   -1.08553929   0.05571079  -2.80099751
H   -1.54304092   0.08198121  -1.96062023
H   -1.75403784   0.28790229  -3.44553505
O    0.83120100   1.70242268  -1.65013863
H    1.61035933   1.16355210  -1.78711541
H    0.15545792   1.28803764  -2.18669075
O   -2.01579126   0.21488422  -0.24650715
H   -2.06466381  -0.59977957   0.25365905
H   -2.57289244   0.82614653   0.23539378
O    0.73724633  -1.99487746  -2.63917975
H    0.70435146  -2.52545995  -3.43518980
H    0.06572833  -1.32525494  -2.76918406
K    0.01361721   1.67901529   1.03213989
