37
Energy:   -677.80598379
O    2.52220014  -0.76804262  -2.10573652
H    3.24801609  -0.99735888  -2.68611322
H    1.74512714  -0.81662625  -2.66253902
O    1.44135107  -2.30958377   2.72259072
H    1.59897633  -2.63301601   1.83558581
H    1.82714722  -2.97472515   3.29266100
O   -1.50072195   3.20460859   2.13973727
H   -1.08871379   3.03932650   1.29170251
H   -1.85507237   4.09072062   2.06575686
O   -1.79940792  -0.75878307  -0.07643911
H   -2.27616662  -0.34916133   0.64546325
H   -1.83390102  -0.11416363  -0.78319781
O    0.67311978   1.94942677   3.31465314
H   -0.03711791   2.55050357   3.08992897
H    1.04930788   2.31167093   4.11683363
O    2.29902001   1.07294784  -0.06703015
H    2.47328562   0.50722482  -0.81924076
H    3.14006060   1.49025202   0.11935598
O   -2.31024348   0.56632940   2.29398108
H   -2.20071838   1.51714123   2.30787286
H   -2.92896223   0.38566154   3.00163784
O   -0.23037561   2.15462251  -0.04371570
H   -0.62971033   1.87987804  -0.86911204
H    0.71027573   2.04738242  -0.18480594
O   -1.42013060   0.94512858  -2.22175585
H   -1.99957054   1.35968038  -2.86099603
H   -0.88757245   0.33980181  -2.73769497
O    0.09011059  -1.05723739  -3.39421118
H   -0.27199148  -1.77262097  -2.87139163
H   -0.00644692  -1.34961785  -4.30053461
O    1.30479013  -2.18961100  -0.05848843
H    0.59643968  -2.60250101  -0.55244524
H    1.88339080  -1.82481310  -0.72809698
O   -0.90899110  -2.86240527  -1.57275996
H   -1.44385138  -3.65622437  -1.57000909
H   -1.38728005  -2.24883021  -1.01508876
K    0.36836787  -0.11084204   1.61909701
