37
Energy:   -675.19447852
O    2.24421356   1.18271014  -2.21300536
H    2.83030531   1.66250779  -2.79825961
H    1.76771671   0.58422119  -2.78832577
O   -0.95088043  -0.78770934   3.52967180
H   -1.68397308  -0.23908179   3.25071871
H   -1.13506707  -0.98566192   4.44788851
O   -1.05654508   2.99717054   1.58235281
H   -0.63208336   2.64630042   0.79943886
H   -1.21595033   3.91828955   1.37653350
O   -1.69392204  -0.92376056   0.34604205
H   -2.24256462  -0.37455397   0.90603784
H   -1.81869803  -0.56910841  -0.53423328
O    1.16168416   1.94125127   2.86954484
H    0.42000748   2.48005000   2.59414790
H    1.62448666   2.47997755   3.51127663
O    2.66757294  -0.77789301  -0.31215715
H    2.48596370  -1.55271239  -0.84404517
H    2.74220981  -0.06411193  -0.94554310
O   -2.73351219   0.88288226   2.19877117
H   -3.61984832   1.16630023   2.42307983
H   -2.25372798   1.69631960   2.04269858
O    0.16483165   1.57268748  -0.40818554
H    0.94926572   1.65699827  -0.95020651
H   -0.49833819   1.21665022  -0.99951883
O   -1.53526500   0.26114082  -2.13931051
H   -2.20804980   0.51813166  -2.76982472
H   -0.84488641  -0.13315969  -2.67235494
O    0.67953548  -0.77972719  -3.42579807
H    0.95072853  -1.54439101  -2.91788527
H    0.70989090  -1.07335847  -4.33634245
O    0.09786919  -2.95010769   0.56864042
H   -0.16903959  -3.71417308   1.07971344
H   -0.70460614  -2.43882630   0.46444580
O    1.52282104  -2.83015057  -1.78243710
H    1.93321129  -3.67152909  -1.98217161
H    0.99093606  -3.00107029  -1.00518768
K    0.83847886  -0.38014808   1.56706303
