37
Energy:   -675.61320768
O   -0.21581240   0.30934857  -2.01993473
H    0.39204773   1.04373110  -2.10607538
H    0.33724989  -0.46905230  -2.08661328
O    0.28664589  -1.92480218   2.11911988
H    1.13637208  -1.59041054   2.40613814
H   -0.15081738  -2.19353683   2.92698089
O   -0.45940653   3.18785662   0.04019327
H   -1.36921544   2.99225664  -0.18390545
H   -0.50525872   4.00291224   0.54000700
O   -2.86141870   1.86561630  -0.21998757
H   -3.73798365   2.08356552   0.09681500
H   -3.01354549   1.29719083  -0.97495895
O    2.56818206  -0.48646472   2.72251911
H    2.63959468  -0.21697288   1.80681925
H    3.47309416  -0.61934148   3.00484818
O    2.09200368   0.17604506   0.10936772
H    2.06731244  -0.55209637  -0.51146418
H    2.17159173   0.95647444  -0.43910979
O    0.43887927   1.22881558   3.17544241
H    1.25624781   0.73226792   3.21520343
H    0.41960343   1.72522788   3.99363256
O    1.60185828   2.34728816  -1.56818389
H    0.95628822   2.83507344  -1.05677733
H    2.06761998   3.01733643  -2.06851698
O   -2.23910115  -1.47915815  -0.01774040
H   -1.75392676  -2.27395102  -0.23942025
H   -2.66307468  -1.22069643  -0.83607764
O   -2.92257264   0.03964987  -2.27816078
H   -1.97962356   0.13177923  -2.41450983
H   -3.28733839  -0.02643739  -3.16066306
O   -0.17730068  -3.37432216  -0.17680080
H    0.01968169  -3.00481778   0.68395254
H   -0.26457917  -4.31456272  -0.02007811
O    1.48719417  -1.83483632  -1.70498520
H    2.00262132  -2.34399292  -2.33054596
H    0.95098719  -2.48467974  -1.25065333
K   -0.61500611   0.45982590   0.81822481
