37
Energy:   -674.14889301
O    3.79913624   1.38828216  -0.59608534
H    4.70643893   1.69232654  -0.57178107
H    3.86465306   0.43412292  -0.55710397
O   -2.88908837  -0.10891967   2.45988791
H   -2.82544882  -0.89951335   1.92403020
H   -3.56969143  -0.30876597   3.10259529
O    1.11322250  -0.35240505   0.76175468
H    0.71389949  -0.16434896   1.61111202
H    0.44805928  -0.85310526   0.28943167
O    3.39707324  -1.35027749  -0.34999305
H    2.66784990  -1.09481754   0.21498959
H    3.91888860  -1.94687145   0.18667838
O   -0.25296413   0.47472980   3.01535734
H   -0.07152577   0.41288970   3.95316744
H   -1.17269080   0.22304587   2.93175170
O    1.47456606   0.78380290  -3.18789160
H    1.79850961   0.95020650  -4.07310472
H    1.56451908  -0.16224748  -3.07330985
O   -1.36562306   1.08855329  -1.51388986
H   -1.80508063   1.25282170  -2.34823079
H   -2.00309162   1.35320324  -0.85069602
O   -0.37675851   2.62622322   1.26277980
H   -1.31589728   2.59620553   1.08016230
H   -0.25882018   2.04032892   2.01047644
O    1.68570906  -1.86559662  -2.45818363
H    2.37335417  -1.79661693  -1.79590132
H    1.92789323  -2.63296330  -2.97657253
O   -0.63684244  -1.50444551  -0.95448274
H   -0.95824061  -0.66357237  -1.27985549
H    0.04180661  -1.75999904  -1.57927048
O   -2.96971178   1.89561144   0.57288589
H   -3.79041585   2.38389245   0.63814170
H   -3.04861769   1.20463207   1.23057366
O   -2.58586698  -2.25338060   0.84482223
H   -2.93766879  -3.12872347   0.68282781
H   -1.92752641  -2.12902342   0.16118868
K    1.18607186   1.94667321  -0.77850264
