19
Energy:   -548.40932433
O   -0.00070313  -0.00004149   3.66653972
H    0.05950565   0.75451041   4.25242212
H   -0.06113290  -0.75457592   4.25242186
O    0.11852706   1.47962799  -1.28683039
H    0.19469384   2.43230388  -1.34011369
H    0.09549953   1.18934332  -2.19866173
O    1.47935769  -0.11832508   1.28717194
H    2.43202028  -0.19450404   1.34067521
H    1.18887639  -0.09512363   2.19893625
O   -0.11803917  -1.47959067  -1.28695181
H   -0.19419016  -2.43226343  -1.34031365
H   -0.09465138  -1.18925963  -2.19875922
O   -1.47986096   0.11824058   1.28661025
H   -1.18972658   0.09502629   2.19848468
H   -2.43254713   0.19437764   1.33975212
O    0.00071511   0.00007977  -3.66653972
H   -0.75371197   0.06041544  -4.25256979
H    0.75537427  -0.06022398  -4.25227419
Li  -0.00000517  -0.00001423   0.00000005
