19
Energy:   -524.61742660
O   -0.97808455   1.15317717  -0.84707721
H   -1.57254207   1.89336491  -0.96944640
H   -1.55151400   0.38736250  -0.81644387
O   -1.15859651  -1.86754225   0.16071650
H   -1.22163104  -2.76608244  -0.16314152
H   -1.65011585  -1.87344111   0.98206040
O    1.82413643   2.39806481   0.55027878
H    2.41047705   2.17271411   1.27253469
H    1.96022759   3.33573341   0.41430585
O   -2.72367455  -2.08413048   2.43098199
H   -3.67877331  -2.13363043   2.47057968
H   -2.43926221  -2.20658104   3.33671226
O    1.95651402   1.34041163  -2.37392009
H    1.79930302   2.02500826  -3.02418465
H    2.17936063   0.56573628  -2.89010741
O    1.33026511  -0.76932700  -0.09084347
H    0.49607638  -1.21320491   0.06190932
H    1.99325016  -1.40522487   0.17807392
Li   1.00140690   1.07657917  -0.66578979
