19
Energy:   -526.68958902
O   -0.15684151  -3.12108760   1.14316263
H   -0.26781165  -3.72127014   1.88052170
H   -0.48544582  -3.60692630   0.38671580
O   -0.56945206   3.16193297  -2.86483740
H   -0.38466748   4.09106775  -2.72774230
H   -0.50901072   3.04252515  -3.81263509
O    2.36905396  -1.18314383   1.76612600
H    3.02676728  -1.84142717   1.99042064
H    2.86737248  -0.37302768   1.65831908
O   -1.47684919   1.37873148  -0.95688945
H   -1.15731036   2.00732701  -1.60418725
H   -2.42933761   1.40306497  -1.04857113
O    0.37678562  -0.60359796  -0.74664927
H    0.80902737  -0.73178211  -1.59102344
H   -0.26840270   0.08451369  -0.90933375
O   -0.59867194   0.07982670   1.98434988
H   -0.48271001   0.49619405   2.83841247
H   -1.08891600   0.72076430   1.46947941
Li   0.51548593  -1.27102255   1.09050369
