19
Energy:   -510.30236917
O   -2.35537313   1.22594138  -3.24824318
H   -2.95754052   1.96984953  -3.26330806
H   -2.59168765   0.71024371  -4.01924461
O    3.19629338  -1.94414594  -0.01405083
H    4.12799011  -1.77443338  -0.15322950
H    3.11852185  -2.89761853  -0.04681447
O   -0.71367041   1.90178656   2.01845905
H   -0.87863001   2.84023683   1.92718329
H   -0.91451514   1.71081193   2.93465878
O   -1.55924142  -1.06053189   1.01909226
H   -1.65169839  -1.78168726   1.64168241
H   -2.32850097  -1.13132606   0.45388454
O   -0.06388120   0.38013394  -1.16619944
H    0.55331160  -0.17614641  -1.64144366
H   -0.49084898   0.90066611  -1.84662330
O    1.52825960  -0.34246699   1.47988563
H    2.08211139  -0.05794333   2.20688380
H    2.09423813  -0.90741127   0.95382659
Li  -0.24006738   0.39060768   0.80656481
