19
Energy:   -529.23413997
O    0.46858679  -0.74773789   1.90868381
H   -0.01916762  -1.44468793   1.46983517
H    1.00442460  -1.20237997   2.55861478
O    0.20297964   2.61664281   2.11457525
H    0.41900474   3.50738834   1.83864517
H   -0.13023509   2.71582925   3.00640587
O   -1.27283423   0.95817858  -0.11441099
H   -1.49617624   0.07380802  -0.40465041
H   -2.04714996   1.48143160  -0.32146963
O   -0.00589558  -2.00691241  -2.84762418
H   -0.30177953  -1.68645390  -3.69967516
H    0.52773094  -2.77479966  -3.05213280
O    1.87233344   1.22567947  -0.18812953
H    1.75001729   1.05104953  -1.12128278
H    2.82149033   1.27892825  -0.07633684
O   -1.27612112  -1.77981676  -0.44009358
H   -0.80901401  -1.89949091  -1.26696775
H   -2.00933667  -2.39329974  -0.48769016
Li   0.34643763   0.99419888   1.00083856
