19
Energy:   -508.71462375
O    2.66026169  -2.31736482   1.97068918
H    2.93132824  -3.21003464   1.75645713
H    3.16054369  -2.09666187   2.75633540
O    1.10951316  -1.47453952  -0.85632841
H    1.59402489  -1.71148111  -1.64711214
H    0.23807607  -1.23486085  -1.17157968
O   -2.18925181   1.90694317  -1.62169590
H   -2.06989978   2.35238986  -2.46048323
H   -3.08000885   2.13341082  -1.35430826
O    0.41566943   0.14613554   1.98607707
H    0.02231894   0.30375775   2.84436751
H    0.14841684   0.89830092   1.45782038
O   -0.24859079   2.18342385   0.35496301
H   -0.91949803   2.12977343  -0.32565212
H   -0.01923526   3.11195276   0.39319829
O   -1.38738583  -0.75835072  -1.56688006
H   -2.09441101  -1.27079969  -1.95898118
H   -1.69449809   0.14718354  -1.61071631
Li   1.38285993  -1.20454804   1.02437771
