19
Energy:   -511.22683731
O    1.63095110  -0.15655696   2.34745759
H    0.86567749   0.06284884   2.87891715
H    2.34134927  -0.25953896   2.98067240
O   -1.71239487   0.46165871   0.86097943
H   -1.41154060   0.47526856   1.76956808
H   -2.64389942   0.67563137   0.91338954
O   -0.82375694   0.49735706   3.49432010
H   -1.17141926  -0.14832682   4.10950713
H   -0.84085900   1.32318038   3.97800928
O   -1.18974742   0.04591549  -2.47637332
H   -1.98612552   0.17884523  -2.99051674
H   -0.51747741  -0.16306710  -3.12491873
O    1.27284068  -0.31437293  -0.31810740
H    1.52998686  -0.28975438   0.60357672
H    2.07769673  -0.53700373  -0.78594725
O    0.82846670  -0.55946247  -4.17718766
H    1.29340704   0.06509134  -4.73395949
H    0.96285582  -1.40641610  -4.60244164
Li  -0.57470385   0.07062010  -0.65436340
