19
Energy:   -532.14404811
O   -0.64135926  -0.00415252   2.28450793
H   -0.10141339  -0.57116424   2.83513304
H   -1.42798703   0.15767704   2.80533400
O    1.39985199  -2.22179928  -1.79007591
H    1.38611111  -2.22620869  -2.74716712
H    1.92381498  -2.98729899  -1.55405719
O    1.54767685   0.17594059  -0.36746266
H    1.67937795  -0.61343336  -0.89260591
H    2.39086591   0.62796871  -0.39803441
O   -0.86362177  -1.40321920  -0.36251315
H   -1.38916429  -2.13331419  -0.03540733
H   -0.18447378  -1.81634667  -0.89572563
O    0.28962953   2.47395710   0.97488355
H    0.42274336   3.27983770   0.47581541
H    0.44311344   2.72724575   1.88511396
O   -1.86361107   1.25841657  -0.64821644
H   -2.39393274   2.04333821  -0.78565292
H   -2.29670231   0.58197710  -1.16888281
Li  -0.28104265   0.56191810   0.37817132
