19
Energy:   -529.37415408
O   -0.15836559  -0.87172837   2.53975534
H    0.60494970  -1.00426121   3.10190894
H   -0.66148783  -0.18434480   2.97633716
O   -1.06628481  -3.04722122   0.34019668
H   -1.15582752  -3.70131655   1.03328631
H   -1.33350382  -3.50437471  -0.45719691
O    1.64830734   1.94897600  -2.12709964
H    1.33771963   2.10982671  -3.01810703
H    2.51244464   2.35953102  -2.09638901
O   -0.14120630   2.39693650  -0.00503778
H   -0.21260477   3.32725123   0.20861758
H    0.48528328   2.36412846  -0.72799441
O    1.13546538  -0.90958076  -0.61576103
H    1.20778670  -0.23134928  -1.28732899
H    1.89149378  -1.47721988  -0.76555673
O   -1.70232252   0.20418159   0.18387450
H   -2.60664538   0.38165398  -0.07484459
H   -1.25967664   1.04913255   0.10416034
Li  -0.41761474  -1.19363751   0.58054623
