19
Energy:   -509.02410484
O   -1.50327315   0.78782176  -0.59893886
H   -2.08971827   1.27538757  -1.17737948
H   -0.62750702   1.09999458  -0.82656504
O    2.47967783   0.71214076  -2.96705001
H    2.14089789   1.06515243  -3.78975455
H    3.32495351   0.32844557  -3.20054280
O    1.19649560   1.44506664  -0.70792693
H    1.60297933   1.17261321  -1.53058844
H    1.69251187   2.21856208  -0.43977677
O   -2.14437960  -2.40056321   0.87774895
H   -2.49226361  -2.81579004   0.08857518
H   -2.26416813  -3.05497215   1.56595785
O    0.83781197  -0.82512979   1.11876851
H    1.41377069  -1.58640950   1.04836524
H    1.26205012  -0.15307950   0.58528726
O   -1.33917002   0.29691982   2.69315018
H   -1.45978223   0.99191253   3.34019708
H   -0.47477972  -0.06509793   2.88809737
Li  -1.46405684  -0.56609464   0.90844365
