19
Energy:   -515.46951928
O   -1.01888416   1.03940679   1.53607870
H   -0.99168437   1.98759232   1.40787486
H   -1.72621486   0.90264406   2.16632555
O    0.67175904   1.88054175  -0.70023922
H    1.46759607   2.41210552  -0.71799388
H    0.16000618   2.18959912  -1.44778480
O   -0.67175450  -1.88054152   0.70023962
H   -0.15998748  -2.18958516   1.44778118
H   -1.46758349  -2.41211684   0.71800894
O   -1.63044178   0.18852625  -1.33572112
H   -2.56878595   0.37705767  -1.32165093
H   -1.49961171  -0.31898805  -2.13668590
O    1.63043885  -0.18852627   1.33572186
H    1.49960885   0.31899150   2.13668446
H    2.56878399  -0.37705268   1.32164934
O    1.01888144  -1.03940711  -1.53607978
H    1.72620636  -0.90265767  -2.16633600
H    0.99166931  -1.98759165  -1.40787124
Li  -0.00000131   0.00000229  -0.00000189
