19
Energy:   -539.68767127
O    0.66302225  -1.05188260   1.66958309
H    1.21106951  -0.29427161   1.87428197
H    0.51142357  -1.47391672   2.51524076
O   -2.12242664   1.80122349  -1.43452491
H   -2.65377472   2.45888419  -0.98576721
H   -2.28351455   1.95680385  -2.36515764
O    2.23479417   1.17464244   2.04857296
H    2.03017549   1.90046460   2.63810263
H    3.18781451   1.09458608   2.08826002
O    0.79105504  -2.42053119  -1.17089440
H    0.50845908  -2.82535228  -1.99095005
H    1.56312958  -2.92217548  -0.90919655
O   -1.96186203  -0.85683854  -0.52743096
H   -2.79111946  -1.31764815  -0.40007927
H   -2.21508191   0.00860628  -0.84854903
O    0.45225110   0.89714572  -0.67033805
H   -0.25443661   1.46145796  -0.98398758
H    1.12405376   1.50407499  -0.35961327
Li  -0.02940380  -0.95445344  -0.15918467
