40
Energy:  -1231.43583334
O    1.15957367   0.15541682  -2.48634897
H    0.71067023   0.97199433  -2.70525244
H    0.89479282  -0.02992811  -1.58536606
O   -0.55717786  -1.81111607  -3.20868218
H    0.11400146  -1.15501519  -3.02084768
H   -0.83507442  -2.12347022  -2.34761294
O    1.35293234  -0.96635030   2.20346788
H    1.01118631  -0.77675391   1.32968604
H    0.82068519  -0.42986370   2.79094293
O    0.31350279   2.78349824   2.14055701
H   -0.05403067   2.41029401   1.33938936
H    1.24386494   2.56142498   2.10392950
O   -2.33883712   0.19442307  -2.68016977
H   -1.75119356  -0.49756629  -2.98357976
H   -2.08836178   0.33901463  -1.76770758
O    2.45944925   1.33420121   1.05175505
H    2.35670299   0.49927210   1.50844798
H    1.66515500   1.41856854   0.52429828
O   -0.39929793   0.60053718   3.64077547
H   -0.20083757   1.37304539   3.11155303
H   -1.10089679   0.15689482   3.16414946
O    3.59955107   0.83713259  -1.40513278
H    2.80048753   0.58782119  -1.86943132
H    3.30794193   1.03629128  -0.51545207
O   -2.25890679  -0.80351667   2.18517168
H   -1.72406665  -1.59719090   2.16907535
H   -1.98193895  -0.31176139   1.41206276
O   -1.37133808  -2.37668953  -0.65543962
H   -0.74091488  -1.67621802  -0.48769542
H   -2.22618589  -1.95119325  -0.58895675
O   -0.56190649   2.27748769  -2.61046327
H   -1.26523352   1.65183364  -2.78401430
H   -0.31332118   2.11289121  -1.70087810
O   -0.55503435  -2.93848988   1.91263032
H   -0.80189565  -2.83686807   0.99341090
H    0.17476006  -2.33105677   2.03369632
C   -0.36953965   0.49378926   0.26895133
O   -1.66064301   0.37945031  -0.17482463
O    0.18819296   1.63741082  -0.23914595
O    0.35428859  -0.59235153  -0.14836278
