40
Energy:  -1231.73671369
O    1.77385234  -1.89560681  -1.07656746
H    0.91628918  -2.31621125  -1.13909096
H    1.58375071  -1.00622650  -0.77807814
O    2.12760666  -0.66574401  -3.52911494
H    2.06563270  -1.14518785  -2.70296442
H    1.61729473   0.13082100  -3.38317739
O   -0.22494386   3.39407906   0.87474059
H    0.10939277   2.96356178   1.66157331
H   -0.48160450   2.67445962   0.29810810
O   -0.81612193  -2.59021159  -0.43280068
H   -0.38387300  -2.66121935   0.41828721
H   -0.79325784  -1.65517509  -0.63630949
O    0.59871348   1.53558941  -2.87444511
H    0.16285796   0.96051518  -2.24551630
H    1.13379022   2.11854221  -2.33584437
O    1.91408243   2.82290660  -0.78937876
H    1.73357121   1.90210707  -0.60023393
H    1.28903214   3.30595342  -0.24881447
O   -2.91798277  -0.69726418   1.97517330
H   -2.02982093  -0.44376727   1.72389712
H   -3.17278395  -1.35356168   1.32665052
O    1.00482579  -2.07594044   1.58587350
H    1.53433407  -2.12434833   0.78994039
H    0.45505201  -1.30227519   1.46168528
O    2.71266096   0.10705565   1.95637331
H    2.24439163   0.36975801   1.16394467
H    2.29400705  -0.71164671   2.22224395
O   -3.49796586  -2.12508431  -0.31957813
H   -2.58317016  -2.40129426  -0.37515447
H   -3.48247356  -1.19592920  -0.54906149
O   -3.21698072   0.58952617  -0.45388095
H   -2.29526703   0.50300036  -0.69716885
H   -3.22847665   0.45676197   0.49399739
O    0.54276659   1.56075176   2.79006092
H    1.44409968   1.25400195   2.69139457
H    0.04677524   1.06074064   2.14182230
C   -0.14010489   0.52197299  -0.06183342
O   -0.71365875  -0.07947948  -1.15098414
O    1.22333674   0.41935126  -0.14897980
O   -0.57299541  -0.09663144   1.08172005
