40
Energy:  -1232.24267912
O   -2.54533165  -1.91133557  -1.86021026
H   -1.81556263  -2.02285310  -2.46949908
H   -2.28342635  -1.17786589  -1.30373951
O   -0.74077251   0.77685047  -2.85848804
H   -0.97187149   0.42392077  -1.99926413
H   -0.18123726   1.52931563  -2.66626856
O   -0.17967840  -1.86370585  -3.27805194
H    0.21149551  -2.06456637  -2.42783440
H   -0.33055433  -0.91873859  -3.25557583
O   -1.05597703   2.39281256   2.32738433
H   -1.04685751   1.51455168   1.94684984
H   -0.20816306   2.76700293   2.08774943
O    0.34766609   2.69890364  -1.13548986
H   -0.57624555   2.85644540  -0.94106834
H    0.49938667   1.79400393  -0.86278266
O   -1.59845889  -2.85217360   0.50318567
H   -2.04152916  -2.67209938  -0.32596682
H   -1.29077137  -1.99633633   0.80168660
O    1.39018554   3.20846464   1.34966372
H    1.04285573   3.11569297   0.46254069
H    1.75816520   2.34887494   1.55442790
O    0.74900192  -2.29332956  -0.75720229
H    0.65438164  -1.35422715  -0.59793676
H   -0.00172125  -2.68872316  -0.31413291
O   -2.26343267   2.59129542  -0.17646085
H   -1.98501637   2.72992567   0.72880036
H   -2.05112655   1.67521624  -0.35522578
O    2.30094237   0.62892873   1.65509536
H    1.96738729   0.09743451   2.37792781
H    1.65807519   0.51304762   0.95543458
O    1.31939320  -1.52436066   3.06364120
H    0.56659317  -1.21505312   2.55980314
H    1.90942555  -1.89762626   2.40883858
O    2.93046474  -1.94440660   0.86368809
H    2.87186547  -0.99774081   0.99261391
H    2.19916503  -2.15317245   0.28243994
C   -0.48508847   0.29632867   0.36274191
O   -0.48134635  -0.61926740   1.38187302
O   -1.50880015   0.01223495  -0.50236152
O    0.70894641   0.23839275  -0.30711206
