40
Energy:  -1234.79515192
O   -2.99951404  -0.82842794   0.76144915
H   -2.62758529  -1.70764047   0.69154801
H   -2.23896759  -0.24959706   0.81394453
O   -2.48844667   2.26862465  -0.87514844
H   -1.95591838   1.88982302  -0.17575242
H   -2.58125438   1.56292165  -1.51514990
O   -1.12325974  -2.84284858  -2.34216490
H   -0.20345956  -2.72670863  -2.10402421
H   -1.51323643  -1.97687083  -2.22286461
O   -1.56593653  -3.12893819   0.33931495
H   -0.97266195  -2.42827448   0.61010545
H   -1.48580677  -3.15615383  -0.61413687
O   -2.13596440  -0.37504662  -1.77225426
H   -1.26244262  -0.14715847  -1.45404280
H   -2.64579966  -0.53714694  -0.97851417
O    2.66834099  -1.42856547   0.95152976
H    1.71359565  -1.36015673   0.94786710
H    2.96625324  -0.65431314   0.47402219
O    2.84469075   0.88646939  -0.53756335
H    2.68572408   1.74481778  -0.14488092
H    1.97154095   0.51578708  -0.66576595
O    1.79706143   3.27220953   0.42645434
H    1.33281458   2.91455304   1.18328230
H    1.22449883   3.08407796  -0.31719237
O    0.33804042   2.22476595   2.51620822
H    0.84076269   1.52286734   2.92953680
H   -0.16579667   1.78710962   1.83003261
O    1.34390953  -0.27848870   3.19207095
H    0.61347285  -0.33354293   2.57590284
H    2.10047149  -0.59106911   2.69594663
O    1.41670201  -2.19297927  -1.50283429
H    2.00310622  -2.31245737  -0.75578212
H    0.93496502  -1.39014558  -1.30378809
O    0.11917144   2.56234810  -1.62595204
H   -0.79804000   2.74209155  -1.41943975
H    0.25735934   1.65971232  -1.33892487
C    0.12551495   0.13341195   0.41570400
O   -0.00709128  -1.12736811   0.93513408
O   -0.99725799   0.86498183   0.70080966
O    0.28585848   0.05270015  -0.94280833
