40
Energy:  -1232.11688092
O   -3.36684835   0.19690345  -0.07763670
H   -3.42231734  -0.66029587  -0.49996875
H   -2.49455377   0.21445390   0.31609669
O    1.21211206   3.17555023  -0.96136473
H    0.99908443   2.56373179  -1.66601307
H    0.57922516   2.97666104  -0.27134363
O   -2.99930284  -2.08811453  -1.58878317
H   -2.45444841  -2.46057135  -0.89550010
H   -2.46054535  -1.39567533  -1.97153659
O   -1.27591013  -2.86252691   0.35762357
H   -1.49791920  -2.49901033   1.21482804
H   -0.72061338  -2.19712343  -0.04872060
O   -1.54399267   0.15181350  -2.16590936
H   -0.88397022  -0.23095979  -1.58790692
H   -2.18833215   0.53734365  -1.57225544
O    1.11904078  -2.95519314   1.69462959
H    0.37933121  -3.22908612   1.15237114
H    1.27565567  -2.04457709   1.44466554
O    2.94015562   1.41554018   0.19410266
H    2.31037077   0.74362032   0.45511338
H    2.41169903   2.08242087  -0.24434417
O   -0.40280958   2.66587396   1.20340465
H    0.31795895   2.58124273   1.82755376
H   -0.61703128   1.76510319   0.96060236
O   -1.03612621  -1.56778391   2.75866610
H   -0.97712793  -0.88126267   2.09425686
H   -0.21893224  -2.05828459   2.67015085
O    1.73600807   1.79696824   2.68343580
H    2.37632822   1.91339088   1.98153287
H    1.25001401   1.01005698   2.43683430
O    2.48901266  -0.43488885  -1.83139500
H    2.87871271   0.18418374  -1.21405000
H    1.69878736  -0.74767334  -1.39100690
O    0.78109689   1.36502479  -2.97927755
H   -0.07906567   1.02560008  -2.73200625
H    1.40086321   0.72163168  -2.63552348
C    0.28563207  -0.06170215   0.20287615
O    1.20900439  -0.38666821   1.16138488
O   -0.93780262   0.12240773   0.79144210
O    0.20365049  -1.07643366  -0.71439110
