40
Energy:  -1232.02185833
O   -1.96936979   1.00179655   2.30925951
H   -1.31047393   0.44392427   1.89589934
H   -2.02684532   1.76832801   1.73885795
O   -3.26002180   0.90314744  -0.87733215
H   -2.33355705   1.03107884  -0.67354676
H   -3.58047779   0.32519163  -0.18486779
O   -1.93428810  -2.14158785  -0.13769731
H   -1.30506904  -1.58177580   0.31719354
H   -1.94805678  -1.80762006  -1.03464089
O    0.49495410  -3.12545467  -0.87306648
H   -0.42116969  -3.09175913  -0.59772368
H    0.75238939  -2.20792911  -0.96309853
O   -3.78490327  -0.73385321   1.24962035
H   -3.19529556  -1.33118011   0.78940827
H   -3.20277162  -0.13505341   1.71737391
O    1.13326288  -2.60100550   1.74844628
H    1.04766645  -3.02673237   0.89541538
H    0.65671390  -1.77626119   1.65394893
O    3.88243626   1.25167754  -0.48814494
H    3.67837194   0.36169335  -0.20088591
H    3.19372087   1.46442736  -1.11793893
O    1.72170193   1.72361819  -2.06788295
H    1.36312741   2.45889780  -1.57087181
H    1.26242918   0.95637395  -1.72636186
O    0.59222065   3.42896253  -0.22024202
H    0.02436856   2.66305575  -0.30487446
H    1.23658225   3.17801684   0.44161616
O    2.19195423   2.04728486   1.52219791
H    1.47810830   1.42885016   1.36665255
H    2.86563934   1.80047445   0.88858539
O    2.85517300  -1.15923616   0.19169222
H    2.06849722  -0.78862362  -0.20833204
H    2.52856175  -1.68163778   0.92425859
O   -1.60878363  -0.71627068  -2.40442544
H   -0.82048804  -0.54831454  -1.88807997
H   -2.26255466  -0.11563168  -2.04658739
C    0.20052040   0.28272898   0.12040304
O   -0.76106798   1.17501471  -0.27473280
O    0.61352590  -0.45151886  -0.96006230
O   -0.31851296  -0.55597023   1.07170121
