40
Energy:  -1231.27961002
O   -1.90362995   1.37461051   2.05184442
H   -1.46713682   1.20164556   1.21770491
H   -1.20580364   1.31649799   2.70444938
O   -2.91328309   1.18020288  -1.17165527
H   -2.00358154   1.20491426  -0.87489899
H   -3.37364920   0.68604051  -0.49334970
O   -1.92447609  -2.05529283  -0.18424950
H   -1.23107637  -1.56229860   0.25436807
H   -1.92244159  -1.72485027  -1.08260100
O    0.48179446  -3.17983110  -1.04414395
H    0.71291551  -2.25368753  -1.11536897
H   -0.41343620  -3.17840302  -0.70533447
O   -3.72613700  -0.36310367   0.96966801
H   -3.13456324  -1.01626533   0.59596736
H   -3.15232656   0.23278437   1.45121850
O    1.76719581  -2.73108866   1.33851899
H    1.24828957  -1.92933732   1.40303989
H    1.48103194  -3.13696365   0.52022346
O    3.36976837   1.79544344  -0.59060454
H    3.40306106   0.87549317  -0.32827852
H    2.66245652   1.83600986  -1.23426296
O    1.20799162   1.79886451  -2.25187847
H    0.68160612   2.44957401  -1.78741395
H    0.96813053   0.96431540  -1.84910522
O    0.70861845   1.09884096   2.93818861
H    0.95524558   1.85488829   2.40546039
H    0.49410338   0.41665216   2.30192328
O    1.19158540   2.86286084   0.79504778
H    0.56641675   2.19640209   0.51004122
H    2.03667707   2.55478586   0.46772267
O    3.15072933  -0.96986103  -0.28803485
H    2.28023106  -0.69948099  -0.58019788
H    2.98361724  -1.61032144   0.40342438
O   -1.53038918  -0.73766238  -2.50529725
H   -0.72193866  -0.63582921  -2.00303277
H   -2.09773504  -0.03311950  -2.19229590
C    0.40949442   0.12066246   0.08298199
O   -0.01385931  -0.75646547   1.04650500
O   -0.56377032   1.05891892  -0.13956993
O    0.65971428  -0.56279727  -1.07807487
