40
Energy:  -1236.89509133
O   -2.52940921   0.25272953   2.07757212
H   -1.71093100  -0.05232101   1.68607571
H   -2.64817595   1.13583531   1.72792873
O   -3.15111485   1.10231812  -1.12293070
H   -2.29733988   1.24731132  -0.71515978
H   -3.45578809   0.27344660  -0.75363667
O   -1.41277803  -1.86088392  -1.17592958
H   -0.98779465  -1.35580199  -0.48273898
H   -1.38228708  -1.28886513  -1.94280417
O    0.87959496  -3.32548884  -1.19544815
H    0.04199065  -2.86708097  -1.26262776
H    1.52060717  -2.63227311  -1.03800883
O   -3.70589975  -1.25550024   0.14001447
H   -2.93561599  -1.57170465  -0.33211851
H   -3.34925202  -0.78765885   0.89510300
O    0.83903240  -2.75159138   1.51822597
H    0.76923920  -3.19021863   0.67030682
H    0.36994007  -1.92556836   1.40045413
O    3.73834608   1.04439454   0.24847196
H    3.38905215   0.16156517   0.12666106
H    3.15288251   1.60628767  -0.25920940
O    1.88197594   2.51341631  -1.09374184
H    1.50880987   3.01875844  -0.37151732
H    1.36248140   1.70981727  -1.11794628
O    0.60158101   3.39378794   1.18616393
H    0.01543648   2.76593525   0.76370986
H    1.17362757   2.85673220   1.73440267
O    1.99978109   1.31562487   2.35469056
H    2.70061932   1.23790371   1.70737530
H    1.24421206   0.89752914   1.94172174
O    2.47218113  -1.34217144  -0.17040997
H    1.77092691  -0.75307613  -0.44869235
H    2.13160950  -1.76518035   0.61781987
O   -1.19365490   0.25421936  -2.85383197
H   -0.50224543   0.29423810  -2.19308748
H   -1.96467231   0.61556992  -2.41657946
C    0.09096248   0.51733915   0.25238441
O   -0.89586026   1.45720634   0.11171132
O    0.59577151   0.19746115  -0.98047596
O   -0.42945858  -0.60644104   0.83895088
