40
Energy:  -1230.90500701
O   -3.06301977  -1.68623264  -1.23074096
H   -2.27483104  -1.99750265  -1.67582674
H   -2.75540453  -0.97775663  -0.66535042
O    2.09694459   0.71113808   2.27615938
H    1.45149275   0.84897951   1.58288922
H    1.78567829  -0.06428601   2.74313114
O    0.85134929  -1.57982533   3.03567152
H    0.25593016  -1.17064252   2.40775645
H    1.44416487  -2.10441743   2.49752223
O    2.22101884  -2.48387165   0.82723436
H    2.85378843  -1.78371606   0.66718237
H    1.37107063  -2.08772103   0.63518077
O    1.77294606  -0.10393473  -1.60037190
H    1.35328875  -0.93143739  -1.83565671
H    1.27362794   0.21287559  -0.84768042
O   -2.10799850   2.60400383   1.11682346
H   -1.24918311   3.02492722   1.07820384
H   -1.93266727   1.68287809   0.92442238
O    0.28554049   3.47898543   0.04306838
H   -0.37893475   3.53694080  -0.64347781
H    0.40554706   2.53958763   0.18221593
O    3.71909097  -0.25753166   0.31870580
H    3.23435689   0.13841427   1.04292367
H    3.12747629  -0.19102258  -0.43082770
O   -2.02382915  -2.94693430   0.96007187
H   -1.30185424  -2.31854560   0.94950239
H   -2.59903478  -2.66357999   0.24938159
O   -0.71775409   0.91069902  -2.30828206
H    0.23887940   0.87850484  -2.30137201
H   -0.97223435   0.67579980  -1.41592899
O   -1.94699760   3.23484362  -1.55139120
H   -2.19871735   2.98338072  -0.66277688
H   -1.55109670   2.44565200  -1.92108150
O   -0.43332275  -1.80183980  -2.08696032
H   -0.33262974  -1.69405709  -1.14119309
H   -0.65074624  -0.92613750  -2.40649803
C   -0.50642609  -0.02522180   0.70320369
O   -1.68452691   0.19327661   0.03890308
O    0.41731050   0.90857326   0.31354196
O   -0.04137695  -1.27970370   0.40691889
