40
Energy:  -1231.89504880
O    0.44414206   2.63011026  -1.80784223
H    1.21716481   2.67664744  -1.24525715
H    0.06629418   1.76968847  -1.62580601
O    2.24426163   2.10724832   0.25802546
H    1.78523878   2.59102929   0.94467373
H    1.66696529   1.37083189   0.05640300
O   -2.28241848  -0.88337831  -2.38752271
H   -1.64078730  -0.35612441  -1.91155571
H   -1.92622441  -1.77158539  -2.36640850
O    1.63600932  -3.17236179  -0.34248762
H    1.33693872  -2.37266182   0.09025777
H    0.86347411  -3.49890410  -0.80378070
O   -3.34642928  -0.49558407   0.08281255
H   -2.54951825  -0.11681362   0.45388884
H   -3.14612327  -0.61384937  -0.84569307
O    1.23114440  -1.29306003  -2.31279528
H    0.70742462  -0.68421525  -1.79197144
H    1.66500389  -1.85005534  -1.66645634
O   -1.26711627   3.00077643   0.29222875
H   -1.27264295   2.06633671   0.49965032
H   -0.76675089   3.06304541  -0.52139826
O    0.67099985   3.21845635   2.19150991
H    0.60782895   2.36762929   2.62548525
H   -0.04477372   3.21743060   1.55597942
O   -1.52965257  -2.44896023   0.59563467
H   -0.80823982  -1.82113414   0.63600663
H   -2.31197255  -1.90875751   0.48433189
O    0.50626538   0.69845437   3.22937971
H    1.35985527   0.36772530   2.94967556
H   -0.08203199   0.48793098   2.50424665
O    2.70022374  -0.14035566   1.83174065
H    1.93511799  -0.51860085   1.39840980
H    2.84403397   0.69196859   1.38142209
O   -0.73392801  -3.11791986  -1.87875930
H   -0.11865637  -2.42308005  -2.11300340
H   -1.03660156  -2.88464825  -1.00114610
C    0.00667194   0.25015083   0.24941065
O   -1.07339174   0.41745651   1.07550364
O   -0.40867314   0.27622246  -1.05592743
O    0.60246050  -0.95481266   0.51564210
