40
Energy:  -1234.15066846
O   -2.36295412   0.38206340   1.96537705
H   -1.59010299   0.02424660   1.52845588
H   -2.52229567   1.21710151   1.52542992
O   -3.16373405   1.14457703  -0.98597213
H   -2.25593684   1.23451985  -0.69606463
H   -3.45023691   0.30717453  -0.62141072
O   -1.54059429  -2.06079522  -1.19452424
H   -1.06130254  -1.56386612  -0.53152143
H   -1.57504034  -1.47789518  -1.95299168
O    0.75917296  -3.61437206  -1.29060590
H   -0.06475057  -3.12730123  -1.30260116
H    1.38866585  -3.01141605  -0.89511303
O   -3.69886634  -1.23948575   0.24424131
H   -2.98022718  -1.61724974  -0.26279318
H   -3.26709436  -0.74547601   0.94120558
O    1.33641210  -1.46179657   2.42601847
H    0.62351214  -1.30389447   1.80709001
H    1.68842483  -0.59168377   2.61369530
O    3.63882084   0.76000495   0.15480114
H    3.26989667  -0.11566890   0.03937966
H    3.10668585   1.32090720  -0.40951514
O    1.94890709   2.31468698  -1.33597872
H    1.55165036   2.87896642  -0.67264800
H    1.38579137   1.54106890  -1.36142679
O    0.57320257   3.34006859   0.81879475
H    1.11678835   2.86587832   1.44799260
H    0.01845502   2.66650843   0.42534370
O    1.86717588   1.26302023   2.17444975
H    1.08879737   0.98348514   1.69255882
H    2.58813892   1.14266111   1.55642239
O    2.36940588  -1.68225610  -0.09915616
H    1.68023856  -1.13157598  -0.47068227
H    2.12499697  -1.78473345   0.82062345
O   -1.47177011   0.09709903  -2.86213218
H   -0.71563542   0.13370494  -2.27634026
H   -2.17585991   0.52164008  -2.37197475
C    0.15997821   0.34476080   0.01564659
O    0.60548738  -0.05858786  -1.21552757
O   -0.40981834  -0.71821738   0.66565278
O   -0.77084705   1.33846206  -0.13895734
