40
Energy:  -1232.67616366
O    1.04452575  -0.90760744  -2.78188977
H    0.52032740  -0.37677390  -2.18217009
H    1.84217167  -1.10660277  -2.29159018
O    0.53750132   3.09969363  -1.65985419
H   -0.34860324   3.13154003  -1.29924865
H    0.86536990   2.23442750  -1.41480610
O   -3.57928055   0.46819165   0.37171273
H   -3.04430716   1.21261105   0.09625840
H   -3.13644872  -0.29552497   0.00175497
O    0.85067186  -3.05453586  -0.15982570
H    0.65634954  -2.17742058   0.17053693
H    0.36483708  -3.11424986  -0.98240132
O   -1.65418339  -0.01502360   2.26575650
H   -2.38908510   0.16291961   1.67882589
H   -0.91789537  -0.19414004   1.68092396
O    2.92681386  -1.37789848  -0.75506995
H    2.40462860  -0.58769971  -0.61672144
H    2.33650258  -2.09770694  -0.53226911
O   -1.82148572   2.46328455  -0.28065613
H   -1.46475657   2.64925129   0.58790160
H   -1.32293154   1.70608334  -0.58777484
O   -0.73464177   2.56600157   2.31684022
H   -1.05830072   1.66620937   2.35986043
H    0.19915384   2.47631174   2.12654218
O   -2.07806190  -1.67028743  -0.43602572
H   -1.47883565  -0.96114718  -0.66900613
H   -1.72356029  -2.02606799   0.37882436
O    1.98352426   2.08602472   1.82677069
H    2.26456570   1.27382829   2.24817848
H    1.68752262   1.81547600   0.95762268
O    2.54933499  -0.65950674   2.06171240
H    1.68393702  -0.58354182   1.65978264
H    3.13581659  -0.86067755   1.33246520
O   -0.69307129  -2.93612342  -2.41557402
H   -0.09426715  -2.22999399  -2.65856922
H   -1.28831807  -2.53807999  -1.78037755
C    0.25767014   0.45644671  -0.03033063
O    1.50410722   0.79103084  -0.49012019
O    0.33554060  -0.70097883   0.69864199
O   -0.58641222   0.27106604  -1.09378688
