40
Energy:  -1232.16240747
O   -2.58250369   2.03139863  -2.29471594
H   -2.27922215   1.12500452  -2.34669561
H   -2.18141970   2.37321611  -1.49563879
O   -1.28515374   2.75088565   0.02795761
H   -0.40958185   2.85356370  -0.34495382
H   -1.33472161   1.82696054   0.27318660
O   -1.66834298  -0.57031835  -2.14176419
H   -2.35880876  -0.88564814  -1.55862099
H   -0.99358578  -0.23140426  -1.55348551
O   -1.04146366  -3.12062451   0.35078347
H   -0.89932452  -2.21969388   0.64121817
H   -0.71253031  -3.13776635  -0.54796057
O   -3.24287591  -1.50393977  -0.08656509
H   -2.68695450  -2.27424615   0.03095646
H   -2.73275490  -0.78166243   0.27993709
O    2.06793509  -1.63527092  -0.83292991
H    1.43507845  -0.92256909  -0.74472321
H    2.03454960  -2.09130847   0.00799042
O    1.28393255   2.57235984  -0.79739348
H    0.93841672   1.68278127  -0.72322729
H    1.73442509   2.72487226   0.03328593
O    2.45563431   2.83315773   1.66948034
H    1.57809843   2.67170899   2.01603039
H    2.78958926   1.96403882   1.44735817
O    1.37271299  -2.66234697   1.64535343
H    1.12763488  -1.73887979   1.70346482
H    0.60050576  -3.09295756   1.27860779
O   -0.06804891   2.23814445   2.44646385
H   -0.58671611   2.62350511   1.74026746
H    0.04719728   1.32370282   2.18811009
O    3.01377265   0.26459188   1.00578404
H    3.07851372  -0.20962135   0.17683153
H    2.09315898   0.18614014   1.25587930
O   -0.03537079  -2.77050327  -2.15864759
H   -0.61453033  -2.01448736  -2.25480384
H    0.76063282  -2.41436205  -1.76396604
C   -0.28604319  -0.33635920   0.53381623
O   -1.49035687   0.26374986   0.79160697
O    0.55702656  -0.14298742   1.59633189
O    0.26570767   0.21347407  -0.59358546
