40
Energy:  -1234.27354265
O   -2.45852872   0.59023323  -1.97047585
H   -3.09928060   0.46785572  -1.26998129
H   -1.63043469   0.74086995  -1.51462421
O    2.96869229   0.80967235  -1.67458979
H    2.48682358   1.49550767  -1.21235142
H    2.33341194   0.10207412  -1.78393082
O   -2.19718002  -2.17358462   0.13602263
H   -1.75621736  -1.37462696   0.42490051
H   -1.97009626  -2.25140304  -0.79058899
O   -0.03981071  -2.43793598   1.89351810
H    0.12110269  -1.50408438   1.75838882
H   -0.80197664  -2.63156403   1.34776805
O   -3.86387355   0.02229373   0.32586004
H   -3.57308830  -0.88510338   0.23472132
H   -3.09232536   0.49069783   0.64451791
O    1.12842282  -1.25771861  -1.61736177
H    0.64189964  -0.57322499  -1.15801928
H    1.47607511  -1.81400223  -0.92028339
O   -0.92187150   3.48272228   0.76910765
H   -1.21734821   2.57465612   0.83499544
H   -0.10719995   3.43431425   0.26890891
O    1.50460769   2.56732450  -0.15340106
H    1.64173226   2.49429394   0.79110687
H    0.84896478   1.89912715  -0.35309217
O    2.23842212  -2.72252467   0.43981233
H    2.65040991  -1.87705726   0.61780890
H    1.43395151  -2.71139571   0.95840180
O    0.81436247   2.28791271   2.53444688
H    0.13816681   2.84742065   2.15242314
H    0.65313353   1.42380042   2.15557088
O    3.07835025  -0.18680174   0.85761180
H    3.18851155   0.17400264  -0.02211346
H    2.15172824  -0.05366226   1.05730503
O   -1.41429132  -1.88573262  -2.47102439
H   -1.81380196  -1.02031220  -2.38344241
H   -0.49764759  -1.75243407  -2.22972041
C   -0.55314185   0.16993029   0.44992303
O   -1.49699398   0.93539269   1.08251204
O    0.54636054   0.04153580   1.25720745
O   -0.18938730   0.77313632  -0.72549406
