40
Energy:  -1231.99463169
O   -2.83815765  -0.70251525   1.65014368
H   -2.32621267  -1.50888295   1.71271616
H   -2.23932274  -0.06800374   1.25641314
O   -2.99960578   1.28553709  -1.27507816
H   -2.26017978   1.24206351  -0.66878525
H   -3.38370369   0.40918850  -1.24836135
O   -1.15970439  -1.65514387  -1.94887096
H   -0.82657339  -1.40090272  -1.08827988
H   -1.07830307  -0.86373642  -2.48111143
O    1.35226517  -2.82642294  -2.19052047
H    0.46944880  -2.45835710  -2.15317567
H    1.86250028  -2.28811809  -1.58544206
O   -3.64509755  -1.34746828  -0.87370142
H   -2.79776504  -1.51628759  -1.28572024
H   -3.42900045  -1.08822071   0.02202431
O    1.61935261  -1.98826097   2.08177962
H    0.87482440  -1.81580986   1.50543753
H    1.80500136  -1.14412094   2.49311158
O    3.46034669   1.24747329   0.66799619
H    3.26548351   0.39673247   0.27493099
H    2.79075040   1.83369909   0.31555901
O    1.36683650   2.74302921  -0.22321757
H    0.83070608   2.98900448   0.53063400
H    1.01936648   1.89457564  -0.49821389
O   -0.20044431   2.75682372   2.03115953
H   -0.61127614   2.12705651   1.43884010
H    0.48682836   2.25792428   2.47273339
O    1.65924086   0.74062620   2.64867870
H    0.94527918   0.50117778   2.05778529
H    2.38485698   0.96958828   2.06791243
O    2.64110986  -1.18127233  -0.34598433
H    1.86260551  -0.65861288  -0.53831199
H    2.43569523  -1.62368692   0.47760902
O   -0.83867777   0.87329072  -2.86534833
H   -0.24761058   0.70846623  -2.13070263
H   -1.66511325   1.12911147  -2.45572412
C   -0.01699942   0.10047073   0.39706946
O   -0.36488611  -1.22022976   0.50515945
O   -1.14375486   0.87662853   0.46848394
O    0.60776443   0.31093315  -0.80424478
