40
Energy:  -1231.23544155
O   -2.06317708  -0.76618682   3.01709765
H   -2.70078964  -0.95774226   2.32935600
H   -1.23790202  -0.63643809   2.54985233
O   -1.64108727   1.53902646  -2.09642435
H   -0.75982761   1.73725210  -2.41315744
H   -1.50573377   1.17889583  -1.21994434
O   -0.83040992  -1.92092390  -2.36072059
H   -0.35667189  -1.31794274  -1.78781759
H   -1.71244786  -1.55368711  -2.41884160
O   -0.85555686  -2.95754764   0.17473798
H   -0.80106827  -2.76734950  -0.76179152
H   -0.49753791  -2.17787409   0.59919461
O   -2.89565126  -1.19858673   0.39066711
H   -2.34395711  -1.98013433   0.35828232
H   -2.27752350  -0.47132669   0.46307408
O    2.22898917  -0.99316212   2.64901414
H    1.36531829  -1.05428934   2.24088680
H    2.46737232  -0.06957395   2.56907533
O    3.46112495   1.19390264  -0.61093190
H    3.25927221   0.27171021  -0.45266489
H    2.69985644   1.52823644  -1.08519240
O    1.10935517   1.99510823  -1.74425999
H    0.81045396   2.61104276  -1.07529470
H    0.83125292   1.13761628  -1.42239271
O    0.19437787   3.22021418   0.56702312
H    0.95641761   2.92190074   1.06354741
H   -0.37095720   2.44996062   0.50925162
O    2.17842468   1.64396111   1.75324443
H    1.39936982   1.12145297   1.56274349
H    2.72633858   1.55079966   0.97392220
O    2.63681484  -1.32144019  -0.04665200
H    1.75470473  -1.03193623  -0.27967788
H    2.62460081  -1.38334853   0.90846580
O   -3.26241663  -0.65689637  -2.25038759
H   -3.22418914  -0.87836434  -1.31994551
H   -2.73976177   0.14117436  -2.32878950
C    0.01802649   0.22333975   0.46087753
O   -1.21282400   0.82226485   0.40383210
O    0.33952093  -0.27764448  -0.77312203
O   -0.01304876  -0.79727484   1.37474863
