40
Energy:  -1233.87839730
O   -1.06411798   0.88832718  -3.08416766
H   -0.75868963  -0.01883618  -3.08402984
H   -0.98889192   1.16701756  -2.17153161
O    0.66819299   3.20512815   0.82454464
H    0.09111793   2.56900463   0.40197738
H    1.54484218   2.97590922   0.51603737
O   -3.15048382  -0.02368488  -1.48548570
H   -2.55887454  -0.00657381  -0.73319752
H   -2.63705739   0.34743384  -2.20304827
O   -0.46957510  -2.75828425   0.32036310
H   -0.76446685  -1.85234110   0.41276286
H    0.17801685  -2.72922153  -0.38391801
O   -2.58605297  -2.68118228  -1.44765881
H   -1.97147331  -2.76362926  -0.71846324
H   -2.87427629  -1.76893459  -1.41662118
O    1.09167335  -2.17702047   2.49179234
H    0.53191822  -2.42574387   1.75623628
H    1.56570574  -1.40515592   2.18235694
O    3.06294144   2.18180541  -0.07952564
H    2.61785030   1.95758709  -0.89674768
H    2.87129417   1.44984924   0.50677064
O    1.64150482   1.27379539  -2.25073554
H    0.89254424   1.47837769  -2.81058909
H    1.27135264   0.75984774  -1.53304687
O    0.70983293   1.74034947   3.14980677
H    0.59351262   2.27455956   2.36410898
H    0.03633016   1.06359661   3.08175211
O   -0.98523115  -0.41974419   3.00905988
H   -0.29078568  -1.07838852   2.99621541
H   -1.19312375  -0.27217396   2.08643561
O    2.22619119   0.13255070   1.55263400
H    1.77460421   0.69676546   2.18029853
H    1.59043539  -0.00148258   0.84972469
O   -0.25465918  -1.63972063  -2.43805142
H   -1.10366389  -2.00144313  -2.18392609
H    0.00080958  -1.08595632  -1.70027594
C   -0.39051425   0.42803777   0.19598092
O   -0.80094343   1.47907924  -0.58107641
O    0.61268820  -0.24952722  -0.44557133
O   -1.44641868  -0.41763040   0.41436451
