40
Energy:  -1236.38238363
O   -0.24368491  -1.59271517   2.05901454
H    0.03226403  -0.97221747   1.38442826
H   -1.18956659  -1.46454378   2.13051135
O   -1.11507254  -2.43200412  -1.67723905
H   -0.62887301  -2.92603545  -1.01710656
H   -0.74113171  -1.55158354  -1.64174658
O   -2.87121614  -0.82773769   2.11870099
H   -2.48752310   0.04122201   2.23668634
H   -2.99103437  -0.91073786   1.17266378
O   -3.05378758  -0.83195031  -0.61193157
H   -2.43526964  -0.10386895  -0.55222458
H   -2.54876164  -1.54433875  -1.00395627
O    1.86029721   1.55640176  -2.41162463
H    1.76678393   2.24935449  -1.75793997
H    1.28719179   0.85517730  -2.10167903
O   -1.59682747   1.57984932   2.27967550
H   -1.40757950   1.48259683   1.34642366
H   -0.76730366   1.38246715   2.71460351
O    3.28051479   0.52831891  -0.25517462
H    2.41222140   0.53825605   0.14756559
H    3.13189349   0.82420939  -1.15327951
O    0.85906539   0.71598510   3.10228222
H    0.95135568   0.91584549   2.17074039
H    0.53645394  -0.18495790   3.12362214
O   -0.76312903   2.47232181  -2.55925106
H    0.09306007   2.15601977  -2.84756531
H   -1.00178237   1.89297580  -1.83562504
O    0.89375778   3.18161723  -0.46108215
H    0.18756665   3.22049811  -1.10607379
H    0.80914178   2.31453196  -0.06455331
O    2.14616077  -1.80319598  -1.09650400
H    2.77682623  -1.20332469  -0.69819839
H    1.36173035  -1.27160020  -1.23180620
O    0.53303998  -3.51914067   0.26926541
H    0.21299213  -2.92660856   0.94949105
H    1.17329295  -3.00106251  -0.21848761
C   -0.23873173   0.19980494  -0.20833288
O   -1.23832637   1.13023837  -0.31816258
O    0.80478412   0.73258786   0.50181908
O    0.19358937  -0.15529454  -1.45924576
