12
Energy:    -19.48199221
C    0.50036153  -2.01373655  -1.15734023
H    0.97400960  -2.44064693  -0.29809334
H    0.75550916  -2.58447577  -2.02570393
H   -0.56100046  -2.02524500  -1.02214644
C    0.97900926  -0.56130075  -1.33879715
N    1.33538425   0.52010372  -1.47390008
C   -0.65248464   2.02630438   1.08583514
H    0.20280214   2.49223130   1.52888910
H   -1.54197283   2.50695884   1.43609381
H   -0.59510925   2.11444186   0.02101640
C   -0.68583788   0.53708005   1.47660165
N   -0.71067088  -0.57171515   1.76754508
