12
Energy:    -19.25219369
C   -2.22844856   0.94449618   0.42765758
H   -1.91083246   1.95963712   0.31142907
H   -1.87342815   0.56454521   1.36280295
H   -3.29736238   0.90069416   0.40756503
C   -1.65810442   0.09333811  -0.72205434
N   -1.23345729  -0.54038777  -1.57806713
C    2.32092148  -0.89462942  -0.40393358
H    3.14848136  -1.39237250   0.05682302
H    2.68441235  -0.17008746  -1.10236927
H    1.71422214  -1.61139581  -0.91682826
C    1.47989076  -0.18944124   0.67633350
N    0.85370516   0.33560342   1.48064144
