12
Energy:    -19.63254632
C   -0.51677450   0.76662683  -2.29797585
H   -0.24680927  -0.25673976  -2.45526468
H    0.36025723   1.37789485  -2.34342757
H   -1.20573823   1.07439586  -3.05659717
C   -1.17600113   0.91678366  -0.91433097
N   -1.66682532   1.02858225   0.11585555
C    0.64275283  -0.68339996   2.32412722
H   -0.18579654  -0.00696113   2.35305187
H    1.50517009  -0.20918446   2.74395481
H    0.40707005  -1.56045553   2.88992422
C    0.93321592  -1.07717835   0.86393210
N    1.14947889  -1.37036427  -0.22324953
