12
Energy:    -19.73174601
C    1.67782780   1.83867996   0.07188921
H    1.78617201   2.89291825   0.21934541
H    2.52254391   1.46545764  -0.46853553
H    1.61788097   1.34996699   1.02187084
C    0.39240975   1.56190688  -0.72979469
N   -0.56464243   1.35583675  -1.32668480
C   -1.59697913  -1.89793706  -0.15122800
H   -2.14151920  -1.04591637  -0.50113805
H   -2.27303433  -2.59060340   0.30490990
H   -1.10506495  -2.37011321  -0.97583046
C   -0.54822118  -1.44770670   0.88269628
N    0.23262677  -1.11248973   1.65249989
