12
Energy:    -19.30809028
C    2.00600170   0.68792978  -1.09425020
H    1.85357865   1.73290481  -1.26657138
H    1.40154002   0.12270330  -1.77251577
H    3.03693468   0.44742481  -1.24992175
C    1.61157637   0.34359728   0.35401214
N    1.31790879   0.08722607   1.43230927
C   -2.04160520  -0.64503865   1.09160417
H   -2.45285082   0.26776641   1.46918084
H   -1.22331275  -0.95018235   1.70981440
H   -2.79511171  -1.40471038   1.09669402
C   -1.54296137  -0.42625698  -0.34891272
N   -1.17169837  -0.26336409  -1.42144302
