12
Energy:    -19.28030126
C    0.99048628  -0.91419091  -2.18101020
H   -0.06781252  -0.87059249  -2.33267765
H    1.40132381  -1.71377913  -2.76132933
H    1.43284912   0.01131179  -2.48540953
C    1.28567520  -1.15816323  -0.68938659
N    1.50545677  -1.33981170   0.42119499
C   -1.06619108   0.93949315   2.19372026
H   -0.93402348   1.89681852   2.65302414
H   -0.23977207   0.30718075   2.44294252
H   -1.97364987   0.49642771   2.54743010
C   -1.13977704   1.10940079   0.66489179
N   -1.19456514   1.23590475  -0.47339050
