12
Energy:    -19.27748379
C   -0.06388307  -0.70006556   2.44969931
H    0.88273779  -0.44375883   2.87761985
H   -0.61200499  -1.31089344   3.13624921
H   -0.61711332   0.19304575   2.24675211
C    0.15881473  -1.47523415   1.13778493
N    0.32462338  -2.05238239   0.16100504
C    0.01835092   0.77080652  -2.48955877
H   -0.95320253   0.77824998  -2.93780943
H    0.38600813  -0.23333266  -2.45172004
H    0.68437387   1.37278710  -3.07173735
C   -0.07106525   1.33890227  -1.06096786
N   -0.13763965   1.76187538   0.00268300
