12
Energy:    -19.19645926
C   -2.09494907  -1.01281497  -0.35015483
H   -3.11136908  -0.70178699  -0.22746763
H   -1.65390274  -1.17752908   0.61070233
H   -2.06550004  -1.92022532  -0.91640416
C   -1.30922429   0.08259697  -1.09467430
N   -0.72421647   0.89818095  -1.64900289
C    2.11775412   0.98979278   0.34252811
H    1.98083968   0.85266215  -0.70977879
H    3.14985130   0.85198122   0.58886624
H    1.81487759   1.97900826   0.61569040
C    1.26527443  -0.03822864   1.10937251
N    0.63056456  -0.80363732   1.68032302
