12
Energy:    -20.35961126
C    1.93092238   1.33954806   0.82502238
H    1.08947411   1.42733327   1.48012448
H    2.36956578   2.30415611   0.67662304
H    2.65432316   0.68183943   1.25977489
C    1.46950307   0.77149624  -0.52997185
N    1.12595543   0.34855584  -1.53882664
C   -1.93596996  -1.34787523  -0.81967928
H   -2.02719969  -2.40999020  -0.72754296
H   -1.22511536  -1.11601461  -1.58507165
H   -2.88645669  -0.92924151  -1.07701153
C   -1.45977537  -0.75544815   0.51967462
N   -1.10522685  -0.31435926   1.51688448
