12
Energy:    -19.28606508
C   -1.72484177   1.13031211  -1.25540869
H   -1.45732900   2.07245620  -0.82447759
H   -2.21247240   0.52671848  -0.51866573
H   -2.38710306   1.29063017  -2.08039790
C   -0.45487310   0.41231307  -1.74861959
N    0.49067629  -0.12226984  -2.11583752
C    1.70940198  -1.17649820   1.29444938
H    1.57508943  -2.17415786   1.65712766
H    2.58865356  -0.75289425   1.73305561
H    1.81544021  -1.19524564   0.22988209
C    0.48462864  -0.32330331   1.67338044
N   -0.42727078   0.31193908   1.95551184
