12
Energy:    -19.52026284
C    1.34851606   2.05950905   0.38284611
H    0.61881778   2.07446680   1.16528900
H    0.93851598   2.51182266  -0.49590951
H    2.21544849   2.60450862   0.69317290
C    1.74109578   0.60259301   0.07482528
N    2.03338922  -0.48214720  -0.15451022
C   -1.43166355  -2.08499847  -0.29857319
H   -0.39658321  -2.33901057  -0.39337145
H   -1.97025898  -2.46229853  -1.14264590
H   -1.82449033  -2.51779837   0.59768038
C   -1.58085407  -0.55346985  -0.23723590
N   -1.69193318   0.58682283  -0.19156750
