60
Energy:   -337.25034340
O    2.25729689  -1.30612268   2.76982251
H    1.45115780  -1.82732699   2.63978748
C    3.33861856  -2.21362411   2.91024475
H    4.23852119  -1.60992343   3.05586733
H    3.48794952  -2.83880740   2.01602808
H    3.22713408  -2.87619794   3.78279530
O   -3.02022503   0.87906539   1.08353327
H   -2.23918569   1.37720702   1.36682771
C   -4.16627362   1.57759182   1.54306264
H   -5.03681746   1.00290265   1.21538753
H   -4.24594916   2.59028239   1.11775458
H   -4.20363109   1.65779184   2.64076465
O    1.54605021   2.93836068   0.18395839
H    1.93919250   2.05507500   0.24452928
C    2.59562678   3.88559362   0.30088813
H    2.13528764   4.87485041   0.23057395
H    3.33996023   3.79730201  -0.50592637
H    3.12080330   3.82131581   1.26672213
O   -0.01810358  -3.59389677  -0.64964461
H   -0.37982943  -2.97600877  -1.30217209
C    0.06313227  -4.87000244  -1.26404581
H    0.47243115  -5.55366823  -0.51533977
H    0.73353435  -4.87943314  -2.13768729
H   -0.92023290  -5.25491417  -1.57647698
O   -0.69969185   2.29246577   1.81262713
H    0.04269720   2.63266366   1.29152527
C   -0.16212372   1.52232924   2.87585053
H   -1.01173833   1.14683479   3.45260363
H    0.47366963   2.11562578   3.55153046
H    0.41963211   0.65675423   2.52213117
O   -0.03651626  -2.71567637   2.01377352
H   -0.02642833  -3.11697008   1.13213592
C   -1.28646411  -2.06466397   2.17609108
H   -1.28089161  -1.61822990   3.17416461
H   -2.13867687  -2.75972451   2.11776799
H   -1.44458102  -1.25868720   1.44248504
O    2.38609141   0.29993107   0.44896054
H    2.45561940  -0.23371567   1.25444815
C    1.50299150  -0.37006784  -0.43634719
H    1.43613020   0.24451612  -1.33817939
H    0.48847608  -0.48029227  -0.02235881
H    1.86913427  -1.36666527  -0.72876876
O   -1.07422018  -1.68240673  -2.39584216
H   -0.73547709  -0.96719947  -2.95455047
C   -2.21147466  -1.18832891  -1.70658666
H   -2.58032022  -2.00651163  -1.08207469
H   -3.02281183  -0.88569708  -2.38697133
H   -1.97378895  -0.33743613  -1.04911856
O   -0.03763677   0.56020152  -3.73568896
H   -0.07646888   1.40918678  -3.27078104
C    1.14360948   0.55329092  -4.52127365
H    1.17158477  -0.40985195  -5.03805057
H    2.05835836   0.64183793  -3.91450248
H    1.15293577   1.34936339  -5.28216719
O   -0.09828475   2.85721289  -2.11831873
H    0.47456249   3.00691617  -1.35159959
C   -1.44156458   2.87794892  -1.66257418
H   -2.07321370   2.70781709  -2.53867905
H   -1.72547462   3.84544647  -1.21971876
H   -1.65409285   2.08436974  -0.92919763
