60
Energy:   -338.22263443
O   -2.65656151  -1.82411237  -0.30829693
H   -2.61153629  -1.40847799  -1.18216424
C   -4.00825662  -1.78017811   0.12009995
H   -4.04093781  -2.25234440   1.10573484
H   -4.68428728  -2.33681441  -0.54766940
H   -4.38902279  -0.75181511   0.22141137
O   -2.26049406  -0.62009867  -2.80105998
H   -1.52107823  -0.05632490  -3.07280738
C   -2.50468223  -1.54456743  -3.84904062
H   -3.34027990  -2.17162412  -3.52645475
H   -1.64239093  -2.20029693  -4.04715641
H   -2.79104983  -1.05272253  -4.79183409
O   -0.04488431  -0.50198107   3.56424186
H    0.64176422  -1.12012126   3.27296920
C   -1.30349366  -1.09613030   3.28960945
H   -2.06541160  -0.38671492   3.62381908
H   -1.45521834  -2.04153115   3.83364454
H   -1.45971737  -1.28420188   2.21583081
O   -0.00145041   0.89646279  -3.48331184
H    0.94015044   0.77203711  -3.29270922
C   -0.29141681   2.27741597  -3.33695071
H   -1.35578517   2.39978453  -3.55519627
H    0.27580736   2.90782673  -4.03952907
H   -0.10809166   2.64443790  -2.31496043
O    2.65059332   0.68645098  -2.52335311
H    2.44802537   1.05531759  -1.65081261
C    3.88704014   1.23783727  -2.94727077
H    4.10003437   0.81182355  -3.93146128
H    4.72057168   0.97913854  -2.27564775
H    3.85097258   2.33368785  -3.05016872
O    1.77418275   1.77773832  -0.11321038
H    0.88851619   2.14121535   0.03478443
C    2.14353378   1.05646042   1.05120869
H    3.14335971   0.65388885   0.86744403
H    1.46852138   0.21179255   1.26018662
H    2.19148898   1.69316662   1.94847278
O    1.75851765  -2.27337860   2.29259817
H    1.23190058  -2.38464327   1.48716790
C    2.93637075  -3.05065240   2.14754204
H    3.51782057  -2.91383178   3.06333755
H    3.55726299  -2.72725099   1.29743517
H    2.72528073  -4.12557486   2.03458169
O   -0.50855522   2.24822217   3.27575793
H   -0.35980509   1.30820424   3.45648689
C    0.14722702   2.99078825   4.29117856
H   -0.03046952   4.04719854   4.07230319
H    1.23560160   2.82336052   4.30481927
H   -0.24954799   2.77899210   5.29640954
O    0.09975911  -2.36705012   0.04711923
H   -0.86278309  -2.29667701  -0.03644750
C    0.67839275  -1.68605905  -1.05468295
H    1.76259044  -1.77517425  -0.94486927
H    0.42409466  -0.61472714  -1.07359705
H    0.39595399  -2.12738961  -2.02330724
O   -0.87694039   2.56606732   0.50262887
H   -0.82982440   2.61699087   1.46886391
C   -1.67424107   1.44102698   0.16926778
H   -1.71684244   1.39856781  -0.92245909
H   -2.70500112   1.52301808   0.54819855
H   -1.24527796   0.49354683   0.53127517
