60
Energy:   -337.30339270
O   -1.34872090   3.11246567  -0.57306131
H   -0.74561926   3.19470516   0.18054890
C   -2.63084126   2.78125072  -0.06414302
H   -3.29764893   2.69245337  -0.92609879
H   -3.03701593   3.55747712   0.60314405
H   -2.63942684   1.82073906   0.47448578
O    1.42223395  -0.73711549  -1.10529054
H    1.18289309  -0.61198927  -2.03560374
C    1.01256592   0.42111538  -0.39591958
H    1.28969355   0.26338110   0.64993192
H   -0.07570011   0.58396911  -0.43988585
H    1.51525343   1.33546889  -0.74811308
O    2.95810070  -2.28614377   0.66437722
H    2.53164091  -1.71715145   0.00649951
C    3.60169347  -3.34146795  -0.03176428
H    4.07678134  -3.97266388   0.72412488
H    4.38463143  -2.98283450  -0.71818072
H    2.89722200  -3.96539127  -0.60379311
O    0.30871223  -0.38625163  -3.65657336
H   -0.25885970   0.39315242  -3.56268666
C   -0.53291493  -1.50885307  -3.86624807
H    0.12249639  -2.37786079  -3.96991481
H   -1.13462670  -1.42358717  -4.78464342
H   -1.21377886  -1.69371609  -3.02065520
O   -3.09000151  -0.85167112  -0.02309971
H   -2.34249459  -1.46114502  -0.11364382
C   -3.55978484  -0.54997016  -1.32725228
H   -4.40149099   0.13741570  -1.20676725
H   -3.92047817  -1.44024661  -1.86584813
H   -2.79894056  -0.05238340  -1.94878323
O   -0.75418649  -2.41496536  -0.31947372
H    0.03905418  -1.90195176  -0.53397211
C   -0.46549183  -3.19306709   0.83106827
H   -1.36941298  -3.76452537   1.05876806
H   -0.22043674  -2.57712305   1.71046481
H    0.35705631  -3.90657708   0.66646151
O    0.33037891   3.04469206   1.67890372
H    0.23823045   2.28016688   2.26663936
C    1.55915809   3.68151531   1.99049907
H    1.64697758   4.54025570   1.31942689
H    2.43042144   3.02856368   1.82517609
H    1.59488429   4.05290186   3.02663274
O   -1.25079384   1.87188234  -3.08822862
H   -1.31652331   2.31666056  -2.23016379
C   -1.01629671   2.86681531  -4.07192231
H   -0.94491440   2.34863534  -5.03206776
H   -0.07428503   3.41318817  -3.90800768
H   -1.83570571   3.59946819  -4.13949433
O    0.08870437   0.67857172   3.16560712
H    0.66812335  -0.09536686   3.22656609
C   -1.21678687   0.21579517   2.85890813
H   -1.85640660   1.10018678   2.79392133
H   -1.62726856  -0.44590587   3.63764676
H   -1.26498800  -0.31204967   1.89359273
O    1.84069402  -1.51744334   3.11505795
H    2.28972703  -1.85352430   2.32522113
C    2.78389520  -1.50683869   4.17467716
H    2.26159217  -1.12567421   5.05637914
H    3.64169498  -0.84606901   3.97382823
H    3.16733036  -2.51136846   4.41274175
