60
Energy:   -338.98957936
O   -2.78230278  -1.77567059  -0.92160217
H   -2.05468441  -1.48608056  -1.49180599
C   -3.97260848  -1.74313136  -1.69273597
H   -4.78193970  -2.07213582  -1.03529834
H   -3.93754932  -2.42363658  -2.55787228
H   -4.21686644  -0.73237921  -2.05535901
O   -0.56049706  -0.86082851  -2.36069529
H   -0.20686429   0.00448552  -2.61485818
C    0.50504191  -1.61506373  -1.80545687
H    0.08931194  -2.58655800  -1.52464970
H    0.92864956  -1.15074467  -0.90116615
H    1.32255119  -1.78802590  -2.52277130
O    2.79886273  -1.70417072   1.02010008
H    2.30260168  -2.53059343   0.92432040
C    3.99927057  -2.00104997   1.71538242
H    4.54597215  -1.05936989   1.81458535
H    4.64060520  -2.71251207   1.17197751
H    3.81799193  -2.39867132   2.72622990
O    1.82831984   0.86697652   1.59177492
H    2.22324483   0.00527767   1.39194348
C    1.82299164   1.62630839   0.39347591
H    1.37499238   2.59363160   0.63651436
H    1.22010266   1.16110169  -0.40206475
H    2.83565539   1.80811188   0.00074579
O   -0.23884950   3.95176228  -1.36578026
H   -0.84505727   3.58840035  -0.70328232
C    0.13923421   5.25014437  -0.93707239
H    0.82187445   5.64472809  -1.69456246
H    0.66873928   5.24176132   0.02850072
H   -0.71714920   5.93796573  -0.85778459
O    0.37682588   1.71953377  -2.94611726
H    0.22654652   2.54282620  -2.45823515
C    0.31304956   2.02192821  -4.33068361
H    0.48442099   1.08372458  -4.86537135
H    1.08632546   2.74022196  -4.64512883
H   -0.66990243   2.41394005  -4.63549410
O   -1.32390472  -2.68495718   1.31434255
H   -1.95415370  -2.42320260   0.62681507
C   -0.91161563  -1.50816862   1.99089274
H   -0.20216455  -1.82117061   2.76173262
H   -1.74631866  -0.98784156   2.48617845
H   -0.40106346  -0.79285986   1.32723078
O    1.12872737  -3.94746357   0.82604719
H    0.25851647  -3.59123811   1.05898430
C    0.93246697  -5.24498001   0.28709754
H    1.92245808  -5.63147865   0.03015084
H    0.32085834  -5.23701787  -0.62868017
H    0.47125644  -5.93915688   1.00694519
O   -1.79638956   2.66987332   0.57807865
H   -1.47609867   2.40661708   1.45359746
C   -2.19750118   1.49314126  -0.10525502
H   -2.55543390   1.80784622  -1.08929270
H   -3.01877057   0.96480658   0.40381901
H   -1.36798018   0.78431162  -0.25436164
O   -0.48110529   1.75989566   2.90082243
H    0.36285208   1.47791184   2.51788071
C   -0.34714819   1.72223367   4.31261945
H   -1.30650446   2.04267806   4.72787376
H    0.43142236   2.40667171   4.68430452
H   -0.13131646   0.71134065   4.69247376
