60
Energy:   -336.92932372
O    1.15495830   2.10710410   2.02052768
H    1.83054624   1.94855355   1.34460910
C    1.69129169   1.69962460   3.26906311
H    0.91748474   1.88505983   4.01894428
H    2.58741238   2.27266676   3.55431341
H    1.94166266   0.62750982   3.29478486
O    0.96855427  -2.45965158  -1.96193664
H    1.09943608  -1.79416137  -2.65361287
C   -0.30919636  -3.04268091  -2.16184637
H   -0.44029499  -3.78979116  -1.37436645
H   -0.39658701  -3.55250235  -3.13407181
H   -1.12817660  -2.31120780  -2.07820552
O    3.49794439  -1.09012107   1.74583011
H    2.64367613  -1.50675121   1.55856470
C    4.51480990  -1.98222086   1.31842365
H    5.47019623  -1.49737705   1.53670932
H    4.47466570  -2.18606400   0.23693682
H    4.48968608  -2.94389673   1.85445129
O   -3.41867470  -0.22372725   1.76921451
H   -2.83772501   0.50605903   2.03061980
C   -3.52725255  -1.10495680   2.87564079
H   -4.18490492  -1.92095574   2.56399308
H   -3.97485057  -0.62442416   3.75967796
H   -2.55914060  -1.53997375   3.16940401
O    1.05082760  -2.10535412   0.83971492
H    1.01011836  -2.30881713  -0.10652439
C   -0.01479418  -1.21669560   1.13512997
H    0.04590189  -0.99795073   2.20468683
H   -1.00385784  -1.65641341   0.93220472
H    0.06122310  -0.26451218   0.58709218
O    3.14998767   1.25590402   0.21604802
H    3.42668464   0.48502100   0.73335009
C    2.74051827   0.79293892  -1.06087480
H    2.43215987   1.67386633  -1.63040723
H    1.88362923   0.10317805  -1.00844922
H    3.55311914   0.29620404  -1.61378676
O   -1.60769991   1.82159381   2.34354896
H   -0.64941271   1.93882779   2.26376730
C   -2.19449501   3.11112219   2.41649989
H   -3.27375396   2.96055462   2.50602489
H   -2.00769500   3.71495769   1.51468739
H   -1.85568602   3.68345661   3.29423511
O   -2.91441931  -0.60909500  -0.95380294
H   -3.16187654  -0.54629394  -0.01932756
C   -4.10758997  -0.76281092  -1.70563335
H   -3.81058635  -0.83197056  -2.75562906
H   -4.79037183   0.09473087  -1.59976394
H   -4.65883165  -1.68004730  -1.44565767
O   -0.91311789   0.97233797  -2.13171225
H   -1.61188023   0.42410021  -1.74494381
C   -0.74698066   2.10868975  -1.29886363
H    0.04355526   2.71523490  -1.74902042
H   -0.43430139   1.84454311  -0.27649601
H   -1.65670247   2.72607006  -1.23541985
O    1.00717595  -0.25917801  -3.74238501
H    0.33564517   0.23968803  -3.25391561
C    1.44055051   0.54854190  -4.82511711
H    2.19655179  -0.02845582  -5.36458063
H    1.90295653   1.49149385  -4.49375681
H    0.62792646   0.78842512  -5.52859101
