60
Energy:   -337.80330486
O   -0.75354607   2.94361247   0.17762087
H    0.00203650   2.77617180   0.76027160
C   -0.28552671   2.88946589  -1.16049714
H   -1.14916344   3.08017700  -1.80333932
H    0.12742474   1.90396231  -1.42701377
H    0.47610134   3.65516288  -1.37592270
O    1.52328395   2.14826951   1.65220150
H    1.77632495   1.22006120   1.53896336
C    2.59240608   2.94753209   1.17189851
H    2.29075618   3.98977156   1.30691492
H    2.79587620   2.78694459   0.10157664
H    3.52749682   2.78758702   1.73118395
O   -1.89113752  -3.12535324   2.33084964
H   -2.14716009  -2.19202530   2.37297660
C   -3.08064729  -3.89839935   2.33090578
H   -2.77397549  -4.94680436   2.28310885
H   -3.72290282  -3.69057377   1.46079447
H   -3.67840703  -3.75891122   3.24523814
O   -2.95756403   1.25295218  -0.02793703
H   -2.25807437   1.92056069   0.03068347
C   -4.20324417   1.93129667  -0.00217838
H   -4.97990735   1.16460949  -0.06903841
H   -4.32981263   2.62044868  -0.85178256
H   -4.36059855   2.49625799   0.92993516
O    2.09376908  -0.57337611   1.19014145
H    1.71306181  -1.43843653   1.40264018
C    2.66730751  -0.66177632  -0.10437500
H    3.09143955   0.32090268  -0.32784582
H    1.92530856  -0.89842191  -0.88297230
H    3.47853238  -1.40445307  -0.16025703
O    0.86356062  -3.02668988   1.80685461
H   -0.07935037  -3.17927389   1.96828647
C    1.58034406  -3.55510884   2.91117733
H    2.64038778  -3.37479652   2.71298555
H    1.43543274  -4.64004744   3.03236431
H    1.32193953  -3.06176480   3.86123843
O   -1.51793631  -0.60188570  -1.66376289
H   -2.11876854  -0.02131023  -1.17350170
C   -1.08966899  -1.62438191  -0.77853841
H   -0.41381096  -2.26916674  -1.34682851
H   -1.92224767  -2.24352597  -0.40941689
H   -0.53734375  -1.23156876   0.08945467
O   -2.44494537  -0.38117935   2.23515680
H   -2.72802170   0.16809220   1.48910597
C   -1.26425695   0.19509700   2.77033358
H   -0.95916082  -0.43593843   3.60949735
H   -1.42424566   1.21589453   3.15132353
H   -0.43676830   0.22095692   2.04413035
O    2.72946661   1.89077041  -2.53487906
H    2.07956246   1.21693132  -2.78385446
C    2.91082383   2.74712790  -3.65125498
H    3.64571928   3.49998922  -3.35357443
H    1.98562263   3.26920714  -3.94145031
H    3.30264733   2.21788583  -4.53395227
O    0.75489410  -0.00789602  -3.21430324
H   -0.05524369  -0.22728773  -2.73060155
C    0.99280058  -1.04776023  -4.14951268
H    1.90872311  -0.78468629  -4.68557539
H    0.18218167  -1.14917374  -4.88801767
H    1.14820463  -2.02572553  -3.66763013
