60
Energy:   -338.46115846
O   -2.06482123   2.58652932  -0.54267767
H   -2.50670371   1.78838019  -0.86844002
C   -2.42240897   2.75061242   0.82031225
H   -1.91619186   3.65393802   1.17135682
H   -2.09458546   1.90889544   1.45025002
H   -3.50566331   2.88939007   0.96200961
O   -3.03612024   0.08502615  -1.46968208
H   -2.33012800  -0.25919140  -2.03670281
C   -4.25754956  -0.03744453  -2.18076936
H   -5.04192057   0.35476334  -1.52776071
H   -4.50578118  -1.08272849  -2.42271942
H   -4.26661493   0.54685646  -3.11419719
O    1.55827181  -0.72479615   3.27776661
H    0.66057262  -0.39186562   3.42513248
C    2.45988549   0.33963475   3.53586236
H    3.46611659  -0.05259190   3.36515086
H    2.40579436   0.70023335   4.57500631
H    2.30903287   1.19753925   2.86205179
O    1.92049025  -2.35104997   1.02377859
H    1.85582753  -1.80194676   1.81922040
C    2.35080155  -3.64176086   1.42556382
H    2.41830754  -4.24718633   0.51760559
H    1.64188538  -4.13214366   2.11093956
H    3.34337233  -3.62977862   1.90246738
O   -1.11090017   0.12975022   3.37276290
H   -1.56191533  -0.22819239   2.59373423
C   -1.97822739  -0.03070777   4.48385718
H   -1.45470849   0.37758940   5.35259568
H   -2.21237732  -1.08655725   4.69154210
H   -2.92542007   0.51873980   4.36676441
O    0.74848741   2.18020036  -0.49361333
H   -0.18193881   2.44934102  -0.51074908
C    0.81610398   0.90391829   0.12206991
H    1.87082117   0.61593472   0.13312919
H    0.25778007   0.13389441  -0.43301113
H    0.45398998   0.91375190   1.16204784
O    1.38496524  -2.11425273  -1.72076771
H    1.59186557  -2.24926547  -0.78407828
C    2.55198671  -1.61106286  -2.35116013
H    2.30135392  -1.46473179  -3.40532123
H    3.40048323  -2.31090863  -2.29596159
H    2.87362731  -0.64180865  -1.93900612
O    2.68991235   1.96184974  -2.53803684
H    2.06067344   2.03634441  -1.80528025
C    3.10113691   3.27388115  -2.88732428
H    3.80945647   3.17149814  -3.71393563
H    3.61264001   3.79313017  -2.06178061
H    2.26567266   3.90436428  -3.22976822
O   -2.29246036  -0.92397187   1.06729497
H   -2.65822995  -0.59920684   0.23113497
C   -1.58184011  -2.12018814   0.79049308
H   -1.17652236  -2.47237180   1.74294748
H   -0.73987922  -1.96408819   0.09802503
H   -2.22694811  -2.91275489   0.38006532
O   -0.85054070  -0.85469796  -2.90921707
H   -0.07813073  -1.33901713  -2.58174027
C   -0.37881494   0.28777102  -3.60547365
H   -1.26159407   0.82171248  -3.96754094
H    0.24399416   0.02822332  -4.47583055
H    0.19362825   0.97257504  -2.96039259
