60
Energy:   -336.61352121
O   -2.72515688  -1.85715994   0.29112377
H   -2.66999482  -1.27494658  -0.48115081
C   -4.07129653  -2.28897773   0.40934065
H   -4.11555434  -2.94366294   1.28393412
H   -4.41160001  -2.86468199  -0.46560819
H   -4.77262269  -1.45544405   0.57102104
O   -0.58075624   0.34979556  -3.91711205
H    0.06938138   1.01341112  -3.64259659
C    0.08988660  -0.59867168  -4.73147182
H   -0.65687369  -1.33867957  -5.03184256
H    0.89565195  -1.12475179  -4.19597276
H    0.51362382  -0.15138098  -5.64424514
O   -0.75958978  -3.06811187   1.88313259
H   -1.49373915  -2.68151935   1.38313839
C   -0.25496541  -4.16038337   1.13158021
H    0.57111124  -4.58413012   1.70909321
H    0.13685639  -3.85532975   0.14862788
H   -1.00447438  -4.95217222   0.97638980
O   -2.48763678  -0.11806970  -1.89294352
H   -1.90113779  -0.02838866  -2.65871079
C   -2.73556198   1.18345828  -1.38590132
H   -3.39761324   1.06398821  -0.52398471
H   -3.24010832   1.83533748  -2.11615047
H   -1.81849600   1.68865719  -1.04451974
O    1.25396431   2.15722677  -2.78984245
H    0.95691666   2.53336634  -1.94799627
C    2.61641885   1.79111116  -2.64080968
H    2.93489174   1.36933747  -3.59797590
H    2.76861756   1.02630373  -1.86319636
H    3.26552884   2.65131767  -2.41392134
O    1.88636710   1.16827628   2.91408457
H    1.85291478   0.20165418   2.85980810
C    2.74654421   1.62772008   1.88377369
H    2.77278708   2.71816948   1.95938202
H    2.38399326   1.36388976   0.87792693
H    3.77657507   1.25318573   1.99118774
O    1.51558019  -1.61510830   2.60774753
H    0.71926842  -2.14925964   2.46993174
C    2.30469938  -2.26474075   3.59151699
H    3.19743052  -1.64986158   3.73448527
H    2.62892274  -3.27024278   3.28067587
H    1.78996820  -2.34995517   4.56134566
O    0.33553502   3.10537500  -0.31404323
H   -0.07620078   2.71177192   0.46952139
C    0.19713652   4.51352131  -0.21155609
H    0.66616573   4.94092144  -1.10196383
H    0.70482556   4.92739464   0.67373371
H   -0.85534575   4.83702585  -0.19147614
O    1.98580173  -1.17866801  -0.19014484
H    1.90844673  -1.33127362   0.76334926
C    0.72113656  -0.73983868  -0.65980919
H    0.82611994  -0.57267090  -1.73522475
H    0.40061847   0.20660554  -0.19689578
H   -0.07239004  -1.48788986  -0.50647197
O   -0.67901782   1.86999954   1.99350961
H    0.16569185   1.72394450   2.44468228
C   -1.50984190   0.75211821   2.26296546
H   -2.45691625   0.93304844   1.74740786
H   -1.72340523   0.62993377   3.33638942
H   -1.08908260  -0.19189509   1.88273153
