60
Energy:   -338.23508218
O    1.78070439  -1.82080392  -1.97620456
H    2.03121726  -0.94063311  -2.29395590
C    0.79505137  -2.33263862  -2.85884103
H    0.52424550  -3.32428931  -2.48631143
H    1.16468080  -2.44460892  -3.89015770
H   -0.11692749  -1.71574912  -2.88162773
O    0.99289750  -2.52548177   0.64172332
H    1.32488979  -2.37751122  -0.25622384
C   -0.38382142  -2.85326668   0.54305298
H   -0.74174740  -3.01668750   1.56318426
H   -0.56126651  -3.77507001  -0.03276747
H   -0.98269194  -2.04402009   0.09667713
O   -1.51124749  -0.01951206   2.61629876
H   -0.63545938  -0.35115767   2.86414882
C   -1.51265260   1.38472179   2.81793982
H   -2.50628026   1.74187982   2.53399014
H   -0.77104433   1.90498446   2.19174396
H   -1.33703872   1.66361134   3.86872891
O    2.17355920   0.85657046  -2.75585288
H    1.46736547   1.34141178  -2.30347850
C    2.31220611   1.41028533  -4.05458712
H    3.11154779   0.85265796  -4.55015730
H    2.59889205   2.47340035  -4.03522281
H    1.39823192   1.30783757  -4.66033705
O    2.21528598   1.27250925   1.83311260
H    1.89321929   0.51854290   2.34908843
C    2.89308832   0.75892653   0.69761687
H    3.24926869   1.62134988   0.12766362
H    2.23634935   0.16477348   0.04305334
H    3.76570360   0.14298054   0.96581538
O    1.10176547  -1.06264088   2.99975110
H    1.10604351  -1.64963162   2.22913651
C    1.81052150  -1.71466050   4.04141759
H    1.79601805  -1.03979859   4.90155493
H    2.86196088  -1.91313007   3.78091345
H    1.34245213  -2.66426564   4.34463117
O   -2.70860795  -1.68882968  -1.99782481
H   -2.95660684  -1.37023155  -1.11724826
C   -3.37342716  -0.87679725  -2.95236791
H   -3.08300248  -1.24932633  -3.93845147
H   -3.07981361   0.18262412  -2.88760084
H   -4.47009566  -0.93889388  -2.87337705
O    0.88760241   3.58193287   0.96150822
H    1.39755715   2.85059242   1.34033612
C    1.78696489   4.65061127   0.71329986
H    1.19613848   5.46582142   0.28687076
H    2.57394025   4.38487492  -0.00977088
H    2.26930256   5.02230301   1.63089070
O    0.12081639   2.11153625  -1.32910844
H    0.24225778   2.71968855  -0.58491354
C   -0.66100888   1.02038169  -0.87012615
H   -0.78814865   0.34524368  -1.72071967
H   -1.66086103   1.32849992  -0.52641670
H   -0.17237479   0.45877276  -0.05857858
O   -3.31230334  -0.73745709   0.59019790
H   -2.73584968  -0.45085570   1.31406535
C   -4.36592677  -1.50089738   1.15550347
H   -5.00561130  -1.81567377   0.32652535
H   -4.98140020  -0.91993797   1.86009977
H   -4.00652995  -2.40486845   1.67168906
