60
Energy:   -337.81503827
O    0.56587737  -0.86082533  -3.09824669
H    0.86713601  -1.70528407  -2.73142801
C    1.68425378   0.01058552  -3.14734962
H    1.32722677   0.95682258  -3.56286418
H    2.48866933  -0.36620658  -3.79828792
H    2.10919009   0.21359446  -2.15186289
O   -1.73515606   0.49044825  -2.27849273
H   -0.98732929  -0.01253581  -2.63371862
C   -2.54473169  -0.40797515  -1.53690223
H   -3.38217447   0.17492971  -1.14396875
H   -2.01116123  -0.85648288  -0.68430578
H   -2.95534474  -1.22070383  -2.15629414
O    1.81451186   2.59526634  -0.63977048
H    1.05463710   2.78751697  -1.20902729
C    2.01858303   3.72014746   0.20018856
H    2.87793908   3.48670958   0.83461677
H    1.15661254   3.92422357   0.85451045
H    2.25041018   4.63642792  -0.36502257
O   -1.93829374  -1.46585324   1.98421763
H   -2.07664675  -0.50710155   1.99298833
C   -1.49002131  -1.84787232   3.27481712
H   -1.33915273  -2.93044628   3.24729464
H   -2.22574296  -1.62566769   4.06356047
H   -0.53324829  -1.37672790   3.54938162
O   -1.93882131   1.35253159   2.15550427
H   -1.16997643   1.44956725   2.73678295
C   -1.70527466   2.13880481   0.99802245
H   -2.58076613   2.01800555   0.35427760
H   -0.81844469   1.81120066   0.43323448
H   -1.59512606   3.21035951   1.22696598
O   -0.51281263   3.00188138  -2.14732137
H   -1.04926341   2.19611444  -2.18451641
C   -0.67667312   3.68533039  -3.37962854
H   -0.06579883   4.59022782  -3.32065018
H   -1.71945329   3.98870204  -3.56225517
H   -0.33026127   3.09522879  -4.24250528
O    1.17439596  -3.22550603  -1.70156467
H    0.47104605  -3.33643297  -1.04474096
C    2.28010624  -4.01059084  -1.28493485
H    3.06305485  -3.87404707  -2.03582264
H    2.04268984  -5.08458764  -1.23069774
H    2.68307566  -3.69414065  -0.31012602
O    1.89653767   0.50427317   1.25083377
H    1.98205758   1.17555151   0.55765629
C    1.26250420  -0.62797973   0.67765082
H    1.17410784  -1.37417938   1.47191612
H    1.84617070  -1.07161068  -0.14411698
H    0.25066215  -0.40521171   0.30438495
O   -0.87453094  -3.35792866   0.20800694
H   -1.25377694  -2.73730321   0.84786614
C   -1.92482362  -4.18853881  -0.26050757
H   -1.48024110  -4.88137585  -0.98009664
H   -2.71675898  -3.62277840  -0.77580443
H   -2.38841118  -4.78190795   0.54309493
O    0.51103085   1.26856764   3.54962496
H    1.05543126   0.96172011   2.80942494
C    1.36775474   1.45853024   4.66428732
H    0.73842769   1.80408527   5.48892324
H    2.14044082   2.22164488   4.48155912
H    1.86567660   0.52880280   4.98123847
