60
Energy:   -337.06169064
O   -2.50750244  -1.95275601  -0.49611200
H   -2.65925343  -2.09256771   0.45038026
C   -1.41721777  -2.77375641  -0.88311518
H   -1.25988917  -2.60395173  -1.95171205
H   -1.61844852  -3.84613864  -0.73385073
H   -0.48461480  -2.51854440  -0.35595689
O    2.16777522   2.81553432   0.23950274
H    1.38584280   2.50552722   0.72002388
C    1.75934751   3.87766038  -0.60761520
H    2.65206877   4.21492569  -1.14126871
H    1.35156754   4.73452424  -0.04879756
H    1.01358909   3.56321923  -1.35444080
O   -0.32467426   1.88564162   1.19703383
H   -0.83984838   2.19186327   0.43595091
C   -0.72094496   0.55249765   1.47673092
H   -0.13104636   0.22321710   2.33642806
H   -0.51925866  -0.13536436   0.64070112
H   -1.78651191   0.47261073   1.74311874
O   -2.55548897  -2.31145571   2.30731573
H   -1.62296161  -2.50687004   2.48232781
C   -3.13313887  -1.84996900   3.51805285
H   -4.18329589  -1.63454003   3.30300446
H   -2.66364513  -0.92492939   3.88772117
H   -3.09656649  -2.60300006   4.32078819
O   -1.67943977   2.66438859  -1.14380975
H   -2.08585108   1.89920831  -1.57711363
C   -2.71861938   3.56744223  -0.80156185
H   -2.24336710   4.42330116  -0.31460604
H   -3.44435511   3.13304855  -0.09630508
H   -3.26781600   3.93703038  -1.68165560
O    3.90486455   1.27684706  -1.33212726
H    3.37177739   1.86589633  -0.77781480
C    5.27038230   1.55074916  -1.06217784
H    5.85661789   0.87869976  -1.69476194
H    5.54362819   1.35702611  -0.01308995
H    5.55343104   2.58587408  -1.30951801
O   -2.78908315   0.30101507  -2.13213449
H   -2.75223608  -0.49409209  -1.57998399
C   -3.14171153  -0.10297712  -3.44551841
H   -3.17871625   0.80463146  -4.05409256
H   -4.13080971  -0.58505006  -3.49099166
H   -2.40198769  -0.78463513  -3.89376871
O    1.93952127  -1.68670062   0.64404304
H    1.90291185  -1.40709401  -0.28272725
C    2.77571190  -0.77350891   1.33643015
H    2.80586330  -1.10317650   2.37849319
H    2.38871215   0.25730256   1.31554401
H    3.80728975  -0.76526008   0.95099998
O    1.88834212  -0.60133608  -1.96679254
H    2.66494893  -0.02394892  -1.92286976
C    0.75473587   0.21901188  -2.20024466
H   -0.11094834  -0.44724583  -2.24689988
H    0.81548965   0.76705810  -3.15351883
H    0.58246347   0.94645379  -1.39158662
O    0.18784523  -2.78722075   2.52611555
H    0.83590883  -2.40460681   1.91616193
C    0.51948926  -4.15502015   2.70407849
H   -0.22030245  -4.57050158   3.39369331
H    1.51731243  -4.29635752   3.14809427
H    0.47211296  -4.72963035   1.76580565
