60
Energy:   -337.24353130
O   -3.10149247  -2.33532490  -0.17639278
H   -3.06634670  -1.46025896  -0.59045515
C   -3.14637816  -3.30120682  -1.21446366
H   -3.18564254  -4.28088381  -0.73054579
H   -2.25392584  -3.27440846  -1.85912485
H   -4.03863674  -3.19928690  -1.85185231
O   -1.54506195   1.68451637   0.85458085
H   -0.92414990   2.41917877   0.96930952
C   -1.17014045   0.65870392   1.75994071
H   -1.87971592  -0.16085884   1.61744605
H   -1.22541542   0.97905672   2.81212706
H   -0.15754298   0.27089043   1.56752347
O   -0.41036621  -1.14593603  -2.41688477
H   -1.20568929  -0.68462448  -2.11180095
C    0.32517507  -1.54034591  -1.26973454
H    1.21751392  -2.05836832  -1.63149325
H   -0.23445616  -2.23488579  -0.62382079
H    0.65157492  -0.68420348  -0.65878396
O   -2.63138052   0.23606540  -1.26301911
H   -2.32007134   0.78927905  -0.53126469
C   -3.48618450   1.03045233  -2.06973674
H   -3.82774980   0.39197471  -2.88898315
H   -2.97116905   1.90026302  -2.50673306
H   -4.37292477   1.38957698  -1.52430250
O    1.43998478   3.12104794  -1.60931320
H    2.21383438   2.55838018  -1.76092143
C    0.31379080   2.46376468  -2.16806146
H   -0.54886607   3.11110202  -1.98844330
H    0.11314634   1.48895892  -1.69660321
H    0.40607940   2.31170216  -3.25486279
O    3.49643963   1.19339694  -1.78399551
H    3.35957071   0.71489371  -0.95289694
C    3.31469248   0.27120945  -2.84657350
H    3.47245494   0.82666253  -3.77504972
H    2.29916159  -0.15405706  -2.87152821
H    4.03825585  -0.55849891  -2.81798316
O    2.87666346   0.00596278   0.70613620
H    2.39751300  -0.69018439   1.17965201
C    2.89142886   1.15788166   1.53402426
H    3.43485969   1.93202909   0.98551367
H    3.41136370   0.98797332   2.48983609
H    1.88110656   1.53863734   1.75093737
O   -1.28614818  -2.89885866   1.88435981
H   -1.95003603  -2.78577183   1.18802113
C   -1.97549345  -3.11494183   3.10527952
H   -1.21287786  -3.24030529   3.87870479
H   -2.59663618  -4.02414603   3.08776492
H   -2.61354748  -2.26364063   3.38979779
O    0.42274865   3.69827699   0.93604233
H    0.81447632   3.57290580   0.05897063
C    0.70888024   5.02478044   1.34962558
H    0.26054037   5.14896308   2.33909777
H    0.27294378   5.78243685   0.67977971
H    1.78929155   5.21909282   1.43755412
O    1.37202890  -2.01063156   1.98262740
H    0.45915394  -2.33406027   2.00445519
C    2.22913217  -3.14105760   1.97594077
H    3.25318732  -2.75871294   1.95126655
H    2.08222151  -3.78087552   1.09173060
H    2.11883111  -3.76368120   2.87757864
