60
Energy:   -337.93815920
O    3.46801431   0.65841251  -1.00484804
H    3.00446002   1.02374477  -0.23668592
C    3.87422615   1.74619761  -1.81986295
H    4.39463242   1.31689081  -2.68030364
H    4.57008381   2.42683252  -1.30479444
H    3.02405351   2.33711773  -2.19509254
O    0.24613505  -3.14399150  -1.73530973
H    0.66169776  -2.34625060  -2.09494895
C    0.65374348  -4.24068705  -2.53758650
H    0.17670708  -5.13085199  -2.11862606
H    1.74363005  -4.39770450  -2.52115118
H    0.33254319  -4.14287939  -3.58641507
O    1.70749585   1.82433224   0.86002546
H    1.25206421   2.39052435   0.21937596
C    0.71870210   1.09532867   1.56951436
H    1.24888559   0.46286694   2.28671923
H    0.12066907   0.44201995   0.91505156
H    0.03155224   1.74693696   2.13166116
O   -2.32814159   0.10700257   2.90499492
H   -1.67549162  -0.58232929   3.09810856
C   -2.44720403   0.92261485   4.05960936
H   -3.18606296   1.69360861   3.82478752
H   -1.50334296   1.42392901   4.32529289
H   -2.80392813   0.36461276   4.93947237
O   -2.10915346   2.20367490  -1.72733091
H   -2.33972096   1.50185263  -1.10066720
C   -3.04854304   2.15806700  -2.78940479
H   -2.77415729   2.95495754  -3.48594132
H   -4.08095600   2.34001105  -2.45206643
H   -3.02516432   1.20292665  -3.33707046
O    1.54138705  -0.78396916  -2.50478558
H    2.28824575  -0.34158835  -2.07475700
C    0.46474491   0.13852768  -2.55351995
H   -0.36796342  -0.37594604  -3.04075586
H    0.70193097   1.03816333  -3.14273621
H    0.13137174   0.45624086  -1.55317101
O   -0.38312156  -1.87275338   3.21801797
H    0.11827762  -2.23947024   2.47468703
C   -0.64109474  -2.93093647   4.12699111
H   -1.20645713  -2.50046178   4.95797974
H    0.28029761  -3.37528684   4.53487126
H   -1.24741171  -3.73541530   3.68205190
O    0.96113207  -2.89380059   0.98517208
H    0.68107672  -3.09882478   0.08076213
C    2.22092529  -2.24596614   0.90924221
H    2.52151687  -2.02217119   1.93639640
H    2.17831918  -1.29727266   0.35161983
H    2.99880888  -2.88052668   0.45646481
O   -2.58754234   0.14403947   0.09773122
H   -2.61108938   0.18076224   1.06547098
C   -2.25756218  -1.18447499  -0.27468816
H   -2.23533898  -1.20805202  -1.36759047
H   -3.00272283  -1.91958561   0.06754761
H   -1.26757868  -1.49593430   0.09369086
O    0.38671070   3.32019606  -1.12436438
H   -0.48268729   3.00736308  -1.41540724
C    0.23822985   4.66300403  -0.69152035
H    1.22664813   4.99965404  -0.36720373
H   -0.45244513   4.76121364   0.16059483
H   -0.10403747   5.33350376  -1.49529926
