60
Energy:   -337.55802907
O   -3.33783062  -1.90683380  -1.00006675
H   -2.69041759  -1.68753724  -1.68649858
C   -3.66420764  -3.28038190  -1.13926963
H   -4.39430230  -3.51048935  -0.35856638
H   -2.79414464  -3.94060784  -0.99831075
H   -4.12195163  -3.51205686  -2.11373075
O   -1.34721001  -1.11421087  -2.79450250
H   -0.73526913  -0.44318451  -2.45734490
C   -1.83439054  -0.66166054  -4.04765338
H   -2.52205007  -1.42915135  -4.41312216
H   -1.03488256  -0.53603205  -4.79450130
H   -2.39011428   0.28598855  -3.97077910
O   -1.18953633   1.12120008   2.81467171
H   -1.85252641   0.66649968   2.27419510
C   -0.53542672   0.14285884   3.60683510
H    0.20787919   0.67207037   4.20926076
H   -0.00958094  -0.61216752   3.00169153
H   -1.22224691  -0.37799369   4.29223133
O    0.40109251   0.82633496  -1.79109834
H    1.36182485   0.94860987  -1.76952286
C   -0.11245121   1.22902841  -0.53147752
H   -1.19548166   1.08481576  -0.57310621
H    0.08242415   2.29055353  -0.31246762
H    0.28067529   0.62462744   0.30094567
O    3.22011024   0.99208659  -1.42941494
H    3.24514360   1.33490476  -0.52372608
C    4.36824713   1.47878890  -2.10575532
H    4.32421308   1.08320973  -3.12411838
H    5.30904797   1.13649584  -1.64694536
H    4.39144971   2.57808754  -2.16724906
O    3.04673849   1.80892013   1.22325047
H    2.35470239   2.33664060   1.64871541
C    3.13226848   0.57329390   1.91494853
H    3.91627046  -0.00862124   1.42280944
H    2.19681432  -0.00593295   1.86805396
H    3.41189658   0.69668876   2.97294624
O    0.98584973  -2.28647576   1.19419749
H    1.61571290  -2.19377910   0.46405846
C   -0.30251996  -2.47243573   0.63023276
H   -0.99960548  -2.57507516   1.46630819
H   -0.37015575  -3.38366987   0.01553359
H   -0.62668595  -1.61588268   0.01866869
O    0.79617398   3.04627275   2.37221686
H    0.08471339   2.41905384   2.56930453
C    0.28516673   4.35417009   2.57423153
H    1.09932906   5.04798964   2.34787048
H   -0.03430621   4.53009498   3.61334885
H   -0.55878340   4.58876921   1.90678208
O    2.73166446  -1.77073335  -0.98606278
H    2.96629785  -0.85586172  -1.20142375
C    2.19300987  -2.36392657  -2.15674925
H    1.93413460  -3.39384022  -1.89646735
H    2.91369866  -2.39297201  -2.98893995
H    1.27841075  -1.86002433  -2.50656110
O   -3.08974087  -0.16289225   1.18726440
H   -3.21403554  -0.80890893   0.47618314
C   -4.25706467   0.64102390   1.24732885
H   -4.10015005   1.36303261   2.05328568
H   -5.16238162   0.05936632   1.48153608
H   -4.43550975   1.20186181   0.31652515
