60
Energy:   -336.77570635
O   -2.89646521   0.05971422   0.09565475
H   -2.78656271  -0.43863869  -0.72774618
C   -3.22007265  -0.86708915   1.11978732
H   -3.34035932  -0.28905229   2.04005342
H   -2.42598875  -1.61184139   1.28577579
H   -4.16322028  -1.40189664   0.92683441
O   -2.23511981  -1.31126902  -2.30934656
H   -1.53852960  -0.71864690  -2.62869650
C   -2.77224299  -1.98939220  -3.43370479
H   -3.55526351  -2.65253347  -3.05607042
H   -2.02418433  -2.60680524  -3.95522824
H   -3.22854356  -1.30440741  -4.16538981
O    1.12655442  -1.13435829   2.37557522
H    0.55579029  -1.91515094   2.43047885
C    0.29521780  -0.00916697   2.14029305
H    0.95411081   0.86138096   2.08120416
H   -0.42670506   0.16368773   2.95375847
H   -0.26037756  -0.08176539   1.19223156
O   -0.10442317   0.38934345  -2.90926467
H    0.84777137   0.28956921  -2.76163700
C   -0.53822617   1.52051492  -2.17115910
H   -1.61265553   1.61831537  -2.34870297
H   -0.05200786   2.45319910  -2.49745544
H   -0.38026647   1.40710159  -1.08720178
O    2.60738331   0.18991082  -2.09311934
H    2.89342553  -0.10644946  -1.21632192
C    3.05796898   1.52410126  -2.26470663
H    2.72729808   1.84217910  -3.25716240
H    4.15515891   1.61063225  -2.22644478
H    2.62874951   2.21651477  -1.52368604
O    3.22545439  -0.53451248   0.57994409
H    2.54204753  -0.77730928   1.22214970
C    3.95127755   0.55979608   1.11678977
H    4.71677143   0.82036814   0.38085057
H    4.45761031   0.31122168   2.06263079
H    3.32113371   1.44755671   1.28285342
O   -0.55939187  -3.39286391   2.11945886
H   -0.63684168  -3.36130677   1.15435319
C    0.08811047  -4.60836772   2.45978954
H    0.16716732  -4.62762260   3.55014015
H    1.10472711  -4.67996046   2.04248578
H   -0.48086730  -5.49645906   2.14303190
O    0.98169325   3.17952290   0.56380049
H    0.05302455   2.95020764   0.71681104
C    1.41849900   3.96245647   1.66323195
H    2.46619566   4.21197208   1.47466137
H    1.36364000   3.41997956   2.62004260
H    0.85630220   4.90393783   1.76484361
O   -0.64439771  -2.99781774  -0.65759906
H   -1.26097024  -2.52982334  -1.24004463
C    0.65505048  -2.48555460  -0.90570112
H    1.33690595  -3.02350352  -0.24149538
H    0.73813441  -1.41041904  -0.68218845
H    0.98675367  -2.65154509  -1.94261842
O   -1.72638436   2.45289168   0.99435071
H   -2.17511465   1.63238148   0.74170983
C   -2.63574221   3.52197851   0.78781879
H   -2.11424342   4.43835281   1.07727059
H   -3.54218585   3.43488401   1.40713439
H   -2.94257419   3.62185670  -0.26510847
