60
Energy:   -337.47157521
O   -0.96071751  -1.23115573  -2.21400460
H   -1.54491709  -0.45855448  -2.19912423
C   -1.76843136  -2.38487476  -2.04352141
H   -1.09461646  -3.24574054  -2.06272543
H   -2.50613570  -2.51068112  -2.85144616
H   -2.30303976  -2.39121467  -1.08074886
O    1.81681425  -0.88019762   2.75715616
H    1.18261415  -1.59164995   2.58380945
C    3.08906093  -1.47617787   2.95395476
H    3.79128656  -0.66086800   3.14795009
H    3.44206623  -2.02729232   2.06827002
H    3.11014098  -2.15788044   3.81860184
O   -2.44093607   0.36764766   0.61296239
H   -2.57486440   0.68365579  -0.29292134
C   -1.07457938   0.56443371   0.93988507
H   -0.94123062   0.20321973   1.96322654
H   -0.77885889   1.62485202   0.91090703
H   -0.39475372  -0.00388476   0.28595196
O    2.03819002   1.75355113   1.85465686
H    2.00258091   0.84873208   2.19883379
C    1.61642921   2.62530563   2.89133217
H    1.66257266   3.64002127   2.48672353
H    2.26994393   2.58073706   3.77660585
H    0.58109646   2.43307663   3.21368513
O   -0.17050007   2.51262531  -2.77279186
H    0.46449315   2.71116202  -2.06866824
C    0.48470679   1.68825983  -3.72340182
H   -0.24466090   1.47422886  -4.50933994
H    0.81803286   0.72931704  -3.29667029
H    1.35239504   2.18208318  -4.18819524
O    1.82362483  -1.68111123  -1.89819421
H    0.87513091  -1.53757909  -2.03303144
C    2.27592154  -0.71687575  -0.96106486
H    3.34590048  -0.89285168  -0.82084097
H    1.78290357  -0.81250957   0.01901921
H    2.14374696   0.31681837  -1.31713181
O    1.64652178   2.90247755  -0.66672986
H    1.78626912   2.53681304   0.21937590
C    2.85172090   3.53527615  -1.06622304
H    2.67675839   3.94153422  -2.06613688
H    3.69998664   2.83549899  -1.12567459
H    3.13435622   4.36845473  -0.40387264
O   -2.50713251   1.16055596  -2.11044563
H   -1.77036000   1.72114453  -2.39562978
C   -3.70996628   1.78230005  -2.53371740
H   -4.52951298   1.13780557  -2.20439194
H   -3.77397907   1.88345751  -3.62845338
H   -3.85578552   2.77680359  -2.08374318
O   -0.03479213  -2.86369447   2.05595194
H   -0.99118565  -2.75705474   1.94476439
C    0.45873164  -3.54101226   0.91130846
H    1.53711196  -3.65278131   1.05304330
H    0.29345144  -2.97759984  -0.02037079
H    0.02420825  -4.54580645   0.79149450
O   -2.74851861  -2.24017172   1.62275180
H   -2.72380287  -1.33586626   1.27627806
C   -3.50620798  -2.22108997   2.82195006
H   -3.52393390  -3.24735160   3.19872326
H   -4.54684279  -1.89799990   2.66235891
H   -3.05850650  -1.58032112   3.59767940
