60
Energy:   -336.53004252
O   -1.96194263  -1.40363491   1.73973928
H   -1.07055611  -1.23012163   2.07700251
C   -2.07737215  -2.80158220   1.52771766
H   -3.08714493  -2.97941292   1.14795409
H   -1.95363288  -3.38385412   2.45423013
H   -1.36066307  -3.17914881   0.78169562
O    1.54209039  -0.65299101  -1.79145201
H    0.94088389  -0.00058260  -2.18047294
C    2.30376751   0.00565428  -0.79216821
H    2.97551082  -0.74351906  -0.36440023
H    1.68017365   0.40903015   0.02097135
H    2.91903144   0.82436304  -1.19706769
O   -0.41802767   1.09676790  -2.91775832
H   -1.21751193   0.55871048  -2.81905463
C   -0.32134485   1.47800914  -4.28078485
H    0.58441321   2.08328474  -4.37421397
H   -1.17559019   2.08834033  -4.61325752
H   -0.22648876   0.61484244  -4.95807571
O    0.66503458  -0.86180179   2.60309834
H    1.25860033  -0.09867956   2.66431460
C    1.46834374  -2.02030780   2.44469383
H    0.78396220  -2.87035375   2.37739610
H    2.14168982  -2.19097677   3.29924313
H    2.07353440  -1.99563483   1.52495862
O    0.94810276  -3.21901939  -0.74547343
H    1.16754019  -2.33339903  -1.07096852
C    1.58848866  -4.15979931  -1.59245209
H    1.33080173  -5.15179284  -1.21162209
H    2.68554161  -4.06425170  -1.58136993
H    1.24458434  -4.09505870  -2.63663397
O   -0.14840354   2.56224146  -0.51715478
H   -0.28970355   2.16960785  -1.39139526
C   -0.93979568   1.83949574   0.41229177
H   -0.76870552   2.29480796   1.39152828
H   -0.65719792   0.77700491   0.47576671
H   -2.01694145   1.89995254   0.19120517
O   -3.89963384  -0.17083186   0.14641547
H   -3.27351537  -0.59606330   0.75104525
C   -4.88260341   0.48203449   0.93386078
H   -5.57959832   0.95560245   0.23714226
H   -4.45812178   1.26735288   1.57873884
H   -5.45337483  -0.21595504   1.56616446
O    2.29116274   3.27942390   0.63393308
H    1.42099235   3.11988353   0.23925137
C    2.97411935   4.20950920  -0.19132165
H    3.95209398   4.37785654   0.26770994
H    2.45660697   5.17933841  -0.25757541
H    3.13696482   3.83203958  -1.21297491
O   -2.60496784  -0.52887287  -2.34021285
H   -3.18625969  -0.36971805  -1.58179818
C   -1.90692327  -1.74044686  -2.10072166
H   -1.25690826  -1.90452430  -2.96446021
H   -2.57936285  -2.60782605  -2.00986092
H   -1.27390328  -1.69574040  -1.20068591
O    2.38269596   1.35706511   2.66863416
H    2.47187244   2.04665809   1.99414742
C    2.20249590   1.99998478   3.92031943
H    2.10377197   1.20883689   4.66853317
H    1.29116499   2.61733411   3.95398101
H    3.06015884   2.63086854   4.20170403
