60
Energy:   -338.24749424
O   -0.42788001  -1.45647808  -3.30046708
H   -0.84263350  -0.58103456  -3.29926034
C   -1.46514911  -2.42416626  -3.31411132
H   -0.98045802  -3.40424705  -3.31529469
H   -2.09885834  -2.35563325  -4.21216097
H   -2.11355958  -2.36506034  -2.42594034
O   -1.48232609   1.13063113  -3.00240451
H   -0.80595587   1.54448200  -2.44592086
C   -2.11196661   2.15832939  -3.75068445
H   -2.87078643   1.67479269  -4.37186876
H   -1.41318155   2.68878985  -4.41633336
H   -2.61576120   2.90122504  -3.11266062
O    0.45636338  -2.06474629   2.99109559
H    1.17798378  -2.13682603   2.34884035
C    0.08177102  -3.38036414   3.36707964
H   -0.73186097  -3.28067222   4.09064700
H    0.90195122  -3.93446621   3.84983492
H   -0.28765515  -3.97639114   2.51793098
O    0.54433785   2.14076833  -1.37153659
H    0.68115045   2.26510969  -0.42061872
C    1.73698931   1.59285527  -1.90996724
H    1.56552731   1.45924056  -2.98152363
H    1.98607125   0.61050990  -1.47899963
H    2.60548259   2.25807386  -1.78355130
O    1.85824094  -2.06474404  -1.79477554
H    1.08604436  -1.88046323  -2.34991183
C    2.76269242  -2.84448467  -2.56061224
H    3.62649283  -3.04294882  -1.92034196
H    3.11868074  -2.32047798  -3.46142667
H    2.33568282  -3.81211199  -2.86743058
O   -2.91921983   1.61705613   1.48813564
H   -2.49919942   0.74625969   1.42714639
C   -3.02924232   2.13499489   0.17201701
H   -3.50428878   3.11592654   0.25913277
H   -3.65719208   1.50832351  -0.48047009
H   -2.05071236   2.27156279  -0.31440428
O    0.57663263   0.68648300   3.64130520
H    0.56154180  -0.27827166   3.55502662
C   -0.62990747   1.08090295   4.27473053
H   -0.59635879   2.17011890   4.36399593
H   -0.73694808   0.65862359   5.28616504
H   -1.52414577   0.81366699   3.69017931
O   -1.58143075  -0.90911733   1.33268087
H   -0.98905996  -1.31431526   1.98332267
C   -0.87092287  -0.80608837   0.10912158
H   -1.55268517  -0.34776390  -0.61242125
H   -0.56261343  -1.78613245  -0.28740866
H    0.02225495  -0.16679336   0.18857351
O    0.89923313   2.38463447   1.40359951
H    0.80674996   1.82252568   2.18711967
C    0.22304488   3.60378013   1.66625343
H    0.33718020   4.22493576   0.77371547
H    0.65063803   4.15173005   2.52047373
H   -0.85381192   3.46214120   1.84817419
O    2.37767317  -1.97321899   0.96704372
H    2.25261485  -2.03620769   0.00849475
C    3.01294513  -0.73398668   1.23772175
H    3.14618389  -0.67939342   2.32158162
H    2.40823709   0.13131317   0.92409507
H    4.00537944  -0.65318175   0.76727300
