60
Energy:   -338.49121643
O   -1.72537638  -2.45094280  -1.49372359
H   -2.33736554  -1.71360767  -1.35149335
C   -2.11951868  -3.11390460  -2.68438192
H   -1.41980518  -3.94143998  -2.82954194
H   -2.06687109  -2.46281701  -3.57099938
H   -3.13583083  -3.53328813  -2.62110160
O    0.78716292  -3.22448542  -0.53000357
H   -0.08436152  -3.00059799  -0.88881109
C    0.60004319  -4.21411832   0.46906935
H    1.59140016  -4.45466146   0.86256084
H    0.15630637  -5.14055668   0.07209714
H   -0.02295083  -3.86120001   1.30579179
O    1.86083544   0.17086974   3.73276391
H    1.06071839   0.29952217   3.20202430
C    1.50412182   0.33510928   5.09596402
H    2.41677081   0.18690741   5.67956768
H    0.75986302  -0.40343537   5.43272501
H    1.11801147   1.34270597   5.31606639
O    2.82887071   1.34814678  -0.49466441
H    2.96961165   0.39743705  -0.37314782
C    3.10182645   1.98533870   0.74308168
H    2.93842910   3.05531429   0.58836019
H    4.14251036   1.84328172   1.07410154
H    2.43166593   1.65089473   1.55042883
O   -3.32895568  -0.17766916  -1.15044378
H   -2.98729626   0.66424627  -1.48640584
C   -3.95190459   0.07812998   0.09816954
H   -4.33106120  -0.88056845   0.46234368
H   -4.80278903   0.77224003   0.01459790
H   -3.25154899   0.47579677   0.84926241
O    0.62695444   1.31232806  -2.26215374
H    1.42458884   1.42863217  -1.72486797
C    0.62370166  -0.02175400  -2.74459363
H   -0.28122964  -0.13554617  -3.34761591
H    0.58995957  -0.76686089  -1.93437482
H    1.49120320  -0.24431377  -3.38544117
O   -1.54700303   2.77116342   0.68514847
H   -1.84606938   2.64773982  -0.22795022
C   -0.39385893   3.59683073   0.65249964
H   -0.07024592   3.72562255   1.68892257
H   -0.59670869   4.59413335   0.23176601
H    0.43722618   3.14447601   0.08907256
O   -0.45205419   0.59509284   2.15437694
H   -0.87627767   1.36033241   1.73860524
C   -0.18127416  -0.35356052   1.13493162
H    0.29635229  -1.20886588   1.62053527
H    0.50799611   0.03201405   0.36745778
H   -1.09423162  -0.71151143   0.63377581
O    2.93683428  -1.44314671  -0.14277137
H    2.26687781  -2.12193631  -0.31255441
C    3.50455551  -1.70759504   1.13013611
H    4.25694148  -0.93385726   1.30543700
H    4.00508865  -2.68740259   1.17726433
H    2.76518424  -1.65557148   1.94463044
O   -2.01138502   2.15039540  -2.04750593
H   -1.09438814   1.88129633  -2.20601678
C   -2.40006588   3.00285874  -3.11276046
H   -3.43517521   3.29656540  -2.91841469
H   -2.36568797   2.50161013  -4.09273256
H   -1.79032081   3.91818282  -3.16906403
