60
Energy:   -337.71710624
O   -3.56480796  -1.32014503  -0.26105150
H   -3.15892168  -0.82106556  -0.98534377
C   -2.90597380  -2.57390530  -0.18007928
H   -3.37545200  -3.12307820   0.64058177
H   -1.83229684  -2.47635406   0.04459574
H   -3.01592015  -3.17213325  -1.09812745
O   -2.26423682   0.08970955  -2.33731438
H   -1.40029890   0.48705667  -2.52211106
C   -3.19157361   0.62338256  -3.26885793
H   -4.15914982   0.16529674  -3.04650941
H   -2.93211034   0.38385042  -4.31196890
H   -3.30250553   1.71546429  -3.18037664
O   -0.76944062  -0.86536543   3.11057949
H   -0.36917671  -1.54385487   2.54678506
C   -2.10530496  -1.26102009   3.37789509
H   -2.54124640  -0.48583650   4.01392234
H   -2.16512985  -2.21905674   3.91767661
H   -2.71683620  -1.33761682   2.46523973
O    0.29470573   1.18763277  -2.71251075
H    1.17534607   0.81625737  -2.55447222
C    0.24113081   2.45426307  -2.07587021
H   -0.75729178   2.85837096  -2.26384452
H    0.97877626   3.16498908  -2.48025254
H    0.38318545   2.38863867  -0.98578248
O    2.81331368   0.16766087  -1.86210667
H    2.86779025   0.61636350  -1.00529775
C    4.07868527   0.28781928  -2.49213083
H    3.99964955  -0.22290321  -3.45566656
H    4.88703626  -0.19074196  -1.91739162
H    4.36096516   1.33504016  -2.68298111
O    2.66071335   1.41678361   0.62852807
H    2.17344413   2.21755015   0.87299678
C    2.11957558   0.33880989   1.37530539
H    2.67978635  -0.55504276   1.08777010
H    1.05548976   0.16047750   1.15463313
H    2.23072071   0.47639649   2.46227090
O    0.47415723  -2.71292167   1.38646268
H    0.82924591  -2.61431364   0.49057666
C    1.32710782  -3.59992322   2.09232195
H    0.91262038  -3.69972486   3.09916107
H    2.35614266  -3.21830454   2.18305124
H    1.36708281  -4.60260732   1.63866578
O    0.91425735   3.51707906   1.37528971
H    0.13610527   2.99622762   1.62351620
C    1.22750203   4.36915973   2.46541359
H    2.10610866   4.94850340   2.16894017
H    1.47896542   3.81242752   3.38170653
H    0.41589793   5.07566205   2.69978633
O    1.52328869  -2.26356429  -1.17999057
H    2.01874761  -1.48850944  -1.48369060
C    0.47384199  -2.49368428  -2.10640311
H   -0.07400485  -3.36990861  -1.74921974
H    0.84244684  -2.71174386  -3.12097583
H   -0.23236088  -1.65083883  -2.16695382
O   -1.13551186   1.73585894   2.04481904
H   -1.04097060   0.89337852   2.51355346
C   -1.93564110   1.50230450   0.89687336
H   -2.03201146   2.46134108   0.38068852
H   -2.94713728   1.14698781   1.14867258
H   -1.47852095   0.78342046   0.19900214
