60
Energy:   -337.75258431
O   -1.39982272   3.07899052  -1.05160405
H   -0.66777325   3.07139371  -0.41719950
C   -1.95778027   4.38329581  -1.04939842
H   -2.78074831   4.37415688  -1.76920762
H   -1.23742750   5.15449738  -1.36422750
H   -2.36620830   4.66943316  -0.06751793
O   -0.45079303   1.16953957  -2.89431878
H   -0.87343167   1.85535512  -2.35630681
C   -1.04810809  -0.07194663  -2.55599862
H   -0.56046067  -0.83315262  -3.17101947
H   -2.12746395  -0.09770127  -2.77303537
H   -0.89980334  -0.34102834  -1.49846467
O    0.23651736  -0.89427795   3.64963974
H   -0.54698466  -0.86331851   3.08079057
C    0.38226169  -2.22845333   4.10927920
H    1.26921874  -2.24541436   4.74842294
H    0.53892550  -2.94615502   3.28882928
H   -0.47696058  -2.56798872   4.70863731
O   -2.59323798  -2.32787375  -0.36812306
H   -1.80574604  -2.73966724  -0.75374702
C   -3.70776826  -2.70411737  -1.16109013
H   -4.58606218  -2.23178446  -0.71277482
H   -3.87379078  -3.79273815  -1.17198323
H   -3.62626950  -2.35461284  -2.20223463
O   -1.86981289  -0.72288962   1.82513047
H   -2.21886900  -1.26560939   1.10260825
C   -1.95944790   0.63529322   1.42533210
H   -1.56219739   1.23255758   2.25053056
H   -2.99638154   0.95640536   1.23977091
H   -1.36175217   0.85438386   0.52670178
O    1.86941019  -1.47873781  -0.87017200
H    2.16470095  -0.77626180  -1.46829749
C    1.61932106  -0.88930000   0.39574753
H    1.28769667  -1.69433649   1.05712996
H    0.82500179  -0.12733065   0.36057742
H    2.51902549  -0.43320871   0.83766383
O    2.29090400   0.58236664  -2.75515150
H    1.36762624   0.84946152  -2.87615476
C    2.76745696   0.10345824  -4.00257997
H    3.80849604  -0.19306045  -3.84830908
H    2.74476419   0.87280205  -4.79021724
H    2.21121095  -0.77695777  -4.36067961
O    0.78700871   2.88559930   0.68047983
H    1.06733815   2.45817594   1.50336984
C    1.91678227   2.95580467  -0.17463226
H    1.58334583   3.43979244  -1.09661989
H    2.31525191   1.96277182  -0.43517986
H    2.73502642   3.55797337   0.25039325
O    1.53541453   1.49979483   2.99827204
H    1.17461749   0.64712828   3.28324314
C    1.67994005   2.31310606   4.15160243
H    2.08732343   3.26944651   3.81257896
H    2.37862015   1.88627373   4.88810608
H    0.72096335   2.51009485   4.65592022
O   -0.18310857  -3.30687906  -1.39157035
H    0.56358066  -2.71019194  -1.23395389
C    0.25141387  -4.62592187  -1.10200158
H   -0.60167665  -5.28494909  -1.28477166
H    0.56070976  -4.75098227  -0.05249061
H    1.08001276  -4.95250496  -1.74972427
