60
Energy:   -336.94136487
O   -2.73662050   2.18928591  -0.44275026
H   -1.96952394   2.60822013  -0.02504190
C   -3.90224843   2.80058331   0.08655192
H   -4.75670657   2.31694847  -0.39457574
H   -3.95315289   3.87890443  -0.13118558
H   -3.99898930   2.66084899   1.17462033
O   -3.01698612  -0.56191748   0.08222446
H   -2.99253907   0.35717851  -0.22287908
C   -1.97479021  -1.26241440  -0.57782518
H   -2.01671667  -2.29565997  -0.22267596
H   -0.97681299  -0.86071663  -0.34233061
H   -2.09590725  -1.27246707  -1.67236021
O    1.65691079   1.32943897   1.23559706
H    2.27554733   1.68084182   0.57815646
C    1.67997564  -0.08545801   1.13525606
H    0.97777241  -0.46488692   1.88253748
H    2.67226564  -0.51102602   1.35211953
H    1.35523938  -0.44703361   0.14703201
O    3.04376522   2.34833772  -0.99455276
H    2.48537134   1.93186729  -1.66773322
C    4.32810487   2.54694725  -1.56337583
H    4.94415805   3.01675989  -0.79185799
H    4.30706040   3.21604542  -2.43781400
H    4.81260375   1.60334588  -1.85944107
O    1.31503808   0.95170170  -2.70474148
H    1.22346792  -0.01075987  -2.64386519
C    0.06117732   1.52532419  -2.37108864
H    0.18214176   2.60949861  -2.44470000
H   -0.25603823   1.28617496  -1.34397654
H   -0.74173350   1.22372823  -3.06185012
O   -0.47624263  -2.94558504   2.37986285
H   -0.99819741  -2.17169891   2.63887394
C   -1.24528642  -4.10112203   2.67284697
H   -0.64261936  -4.96342084   2.37499064
H   -2.19180356  -4.13570725   2.11098712
H   -1.47422663  -4.19882058   3.74560915
O   -2.16007609  -0.73506059   2.76549675
H   -2.57656570  -0.68380885   1.89237996
C   -1.69568276   0.56358248   3.09775991
H   -1.22946700   0.48775258   4.08385214
H   -2.50938866   1.30296395   3.16080811
H   -0.93941847   0.93862506   2.39052253
O   -0.43658287   3.15754876   0.81729086
H    0.25581804   2.53338536   1.08077580
C    0.20039740   4.34534896   0.37466167
H   -0.59385543   5.03733693   0.08174478
H    0.84858866   4.17965676  -0.50007915
H    0.79853260   4.82667866   1.16417629
O    0.96885822  -1.80786114  -2.31612770
H    0.99277448  -2.38738078  -1.54023577
C    0.52470727  -2.58254861  -3.41845389
H    0.50361960  -1.91449311  -4.28375289
H   -0.48982264  -2.98569723  -3.27361747
H    1.20155130  -3.41983060  -3.65001028
O    0.96858266  -3.33997123   0.02062048
H    0.47258460  -3.25046682   0.84790409
C    2.23325872  -3.90032682   0.33546939
H    2.77878691  -3.99424701  -0.60743209
H    2.15426310  -4.90235790   0.78543687
H    2.82507787  -3.26211587   1.01016503
