60
Energy:   -336.57983251
O    0.45382623   3.72601979  -1.27525372
H   -0.15886613   2.97566719  -1.27373037
C   -0.32091003   4.91427080  -1.29467145
H    0.38478307   5.74942367  -1.29613543
H   -0.96724122   5.01503087  -0.40873650
H   -0.94983491   4.99719177  -2.19486861
O    2.71596560   0.48579556   1.39137171
H    2.68137953   1.43936670   1.22425151
C    2.04925958   0.23952386   2.61912865
H    2.09757724  -0.83902059   2.79202308
H    0.98839870   0.53396040   2.59346452
H    2.52931362   0.74387703   3.47233047
O   -0.96339324  -1.59354838   2.50809261
H   -0.32530526  -2.14138942   2.02732531
C   -1.18264676  -2.19768439   3.77279864
H   -1.90361993  -1.56789266   4.30104598
H   -0.26695099  -2.25311522   4.38206543
H   -1.60830769  -3.21016566   3.69235114
O    0.40968714  -2.41428646  -1.77209576
H    1.14537418  -1.78675871  -1.71381388
C   -0.49004880  -1.93241583  -2.75739252
H   -1.31249062  -2.65095342  -2.81010287
H   -0.03087840  -1.86525164  -3.75610612
H   -0.91263112  -0.94796833  -2.50231483
O   -1.23854106   1.49549172  -1.06690492
H   -2.00044140   0.98183567  -1.37364357
C   -0.72230768   0.85224632   0.08733606
H    0.13509646   1.44378511   0.41963893
H   -0.37199941  -0.17157227  -0.11725363
H   -1.44992158   0.81205694   0.91301163
O    2.46650827   3.15971949   0.59524633
H    1.79156535   3.45371610  -0.03438953
C    3.69700837   3.75560662   0.21666765
H    4.44602813   3.41393260   0.93619073
H    3.66565002   4.85582190   0.25300368
H    4.02563132   3.45037944  -0.78912590
O    2.44799243  -0.57546571  -1.21789859
H    2.59289508  -0.26605957  -0.31142503
C    2.40322021   0.56525732  -2.06008633
H    2.23942693   0.19868211  -3.07708170
H    3.34391957   1.13777658  -2.05093507
H    1.57790063   1.24888540  -1.80655609
O   -3.44566800  -0.18488694  -1.64005085
H   -3.39122350  -0.79065628  -0.88605976
C   -4.70813864   0.45975099  -1.58398300
H   -4.75272148   1.13826467  -2.44020538
H   -4.84047697   1.05673047  -0.66807941
H   -5.54984485  -0.24593612  -1.66344170
O   -3.09633349  -1.79009144   0.63813552
H   -2.44879445  -1.65913754   1.34663220
C   -2.89108070  -3.08729680   0.10179297
H   -3.62855644  -3.21821234  -0.69474695
H   -3.04670426  -3.88445855   0.84549437
H   -1.88879172  -3.21232017  -0.33702737
O    0.66745714  -3.20898532   0.91858332
H    0.54039754  -3.04973101  -0.02847381
C    2.05980690  -3.35580089   1.14736509
H    2.18500868  -3.53448787   2.21875702
H    2.63178182  -2.45269202   0.88275896
H    2.49181097  -4.21182552   0.60572715
