60
Energy:   -336.51849591
O    2.72317782   0.41920462  -1.42033829
H    2.66482494  -0.54765173  -1.43472578
C    2.62639063   0.83617485  -0.06782143
H    2.69391407   1.92746831  -0.06991222
H    3.44410609   0.44474380   0.55739894
H    1.66843318   0.55430484   0.39655358
O    1.57361600   2.57362478  -2.78839260
H    2.08972444   1.87053828  -2.36681849
C    1.44089074   2.24551769  -4.16216970
H    0.85713435   3.04768881  -4.62177298
H    0.90415029   1.29745770  -4.32300904
H    2.41042858   2.18832148  -4.68130581
O    0.65571493  -2.66447246   1.01993039
H   -0.28783599  -2.72907625   1.22959988
C    1.30801014  -2.09320118   2.14273664
H    2.36965790  -2.02768122   1.88956403
H    1.21085263  -2.70965700   3.05010645
H    0.94850932  -1.07789842   2.37229448
O    2.28438165  -2.35477101  -1.23233009
H    1.71719602  -2.53619307  -0.46825564
C    3.21782028  -3.41785836  -1.33755065
H    3.84862585  -3.19754764  -2.20301741
H    2.73459097  -4.39287799  -1.50667631
H    3.86868268  -3.50136951  -0.45314047
O   -2.10625739  -2.70119513   1.51491003
H   -2.73690084  -2.15649197   1.02093575
C   -2.63728380  -4.01462930   1.58863532
H   -1.91454197  -4.61475322   2.14808213
H   -2.76966298  -4.47604304   0.59749939
H   -3.59993199  -4.05478958   2.12199538
O    1.81707894   1.29798808   3.18840420
H    1.00332501   1.51674701   2.71052101
C    2.36828672   2.51030648   3.67726803
H    3.28404645   2.24560251   4.21280620
H    1.69863557   3.02842025   4.38147168
H    2.63482318   3.21176175   2.87123072
O   -0.60724054   2.76112281  -1.06996889
H    0.14866605   2.81080622  -1.67375699
C   -1.22406770   4.03842783  -1.04651864
H   -2.07330190   3.96466784  -0.36179538
H   -1.60645530   4.34417078  -2.03296595
H   -0.55282066   4.82803629  -0.67406296
O   -3.68959744  -1.04972311  -0.10110480
H   -3.08383548  -0.62016391  -0.72316157
C   -4.97531194  -0.48065639  -0.28987738
H   -5.64508900  -0.97577109   0.41846245
H   -5.36890226  -0.64653966  -1.30493734
H   -4.99662777   0.60046291  -0.08130120
O   -1.78380176   0.25639288  -1.68151456
H   -1.41706810   1.14000597  -1.52933833
C   -0.69618628  -0.64734773  -1.79500132
H   -1.12708075  -1.63756815  -1.96611146
H   -0.08514979  -0.69440499  -0.88001643
H   -0.03433675  -0.41185491  -2.64310253
O   -0.46072460   1.89354594   1.63351074
H   -0.55322204   2.19655100   0.71805707
C   -1.36586320   0.81799804   1.82444162
H   -1.24859454   0.48885980   2.86049243
H   -1.15189061  -0.03957838   1.16751259
H   -2.41611204   1.11484683   1.67735151
