60
Energy:   -336.59809075
O   -0.85715205   3.19747279  -2.33793233
H   -0.00308616   3.02060873  -1.91637114
C   -1.04765885   4.60319763  -2.35129754
H   -2.01406642   4.78472418  -2.82940812
H   -0.27508402   5.13152739  -2.93161911
H   -1.08024070   5.03754506  -1.33983421
O    1.57626327   2.65939737  -1.01462135
H    1.71329913   2.05378989  -0.27105964
C    2.82876290   2.84621849  -1.65405574
H    2.65623277   3.53078168  -2.48897596
H    3.24272917   1.91000623  -2.06015408
H    3.58148758   3.29996614  -0.99050774
O    0.00011321   0.29629448   3.27626360
H   -0.75503689   0.51108427   2.70878061
C   -0.30747499   0.73983600   4.58820650
H    0.55348680   0.49010220   5.21419613
H   -1.19289840   0.23880064   5.00982989
H   -0.46514374   1.82837167   4.64305173
O    1.81160424   0.77903451   1.08900924
H    1.30841804   0.66498585   1.90889937
C    1.61163109  -0.38043716   0.29643750
H    2.18525592  -0.23525430  -0.62299803
H    0.55609009  -0.52989605   0.02026261
H    1.97619029  -1.29758279   0.78502507
O   -0.71045247  -1.23003596  -2.51388573
H   -0.00311576  -1.86442348  -2.32507224
C   -0.12245644  -0.10638174  -3.14964956
H   -0.93298813   0.59807960  -3.35521661
H    0.35815048  -0.36256709  -4.10681381
H    0.61891671   0.40232796  -2.51375836
O    0.11227781  -3.43338111   0.91700873
H    0.41541797  -3.21343044   1.81040171
C   -1.22926121  -2.98825135   0.79590406
H   -1.55493127  -3.24386217  -0.21606793
H   -1.32877107  -1.89871773   0.92156879
H   -1.90758833  -3.48357565   1.50815646
O    1.18918822  -3.11677010  -1.65415519
H    0.88006033  -3.29586669  -0.75371773
C    1.13118179  -4.33464993  -2.37937085
H    1.48270014  -4.11487013  -3.39111039
H    0.10885666  -4.73737708  -2.45312398
H    1.78197154  -5.11444341  -1.95372763
O   -2.00244598   0.94182793   1.44748317
H   -2.39143419   0.46852493   0.69708613
C   -1.53704574   2.19464645   0.97168685
H   -1.10204608   2.71458685   1.82954609
H   -2.34575040   2.82255164   0.56608953
H   -0.75612174   2.09367853   0.20179041
O    0.99715569  -2.34205088   3.36632364
H    0.65681723  -1.43783168   3.43689732
C    2.37527395  -2.31063053   3.70149016
H    2.74265022  -3.33696230   3.61685579
H    2.55443056  -1.96784737   4.73259633
H    2.96482391  -1.67956756   3.01813981
O   -2.84335090  -0.35140683  -0.91567380
H   -2.15342804  -0.68850427  -1.50626252
C   -3.59696181   0.60905945  -1.63824483
H   -4.36947026   0.97844486  -0.95834020
H   -4.09601738   0.18096059  -2.52167691
H   -2.98995829   1.46814183  -1.96428398
