60
Energy:   -339.29194340
O   -3.45310355  -1.52950258  -0.28051673
H   -3.07597718  -1.16391724  -1.09448622
C   -3.78729503  -2.88509589  -0.53194585
H   -4.21062296  -3.28142330   0.39498632
H   -2.91074880  -3.49722318  -0.79603713
H   -4.54133304  -2.99680326  -1.32675744
O   -2.22974838  -0.49307520  -2.59731136
H   -1.33227172  -0.17302096  -2.77202313
C   -3.02558769  -0.18245949  -3.72987104
H   -4.03300643  -0.54981388  -3.51622777
H   -2.66981573  -0.67591967  -4.64785835
H   -3.09025693   0.90031494  -3.92012022
O   -0.79527059  -0.24087419   2.92572069
H   -0.08220702  -0.89342489   2.99007297
C   -2.02649292  -0.94529875   2.94600320
H   -2.81875355  -0.19534069   2.87271461
H   -2.17732463  -1.51120523   3.87862154
H   -2.13354161  -1.63901680   2.09743195
O    0.39657249   0.46768248  -2.92234020
H    1.25245209   0.10268027  -2.65277246
C    0.27540966   1.75575479  -2.34034100
H   -0.69399982   2.15233990  -2.65410957
H    1.05639562   2.45243160  -2.68309410
H    0.29295601   1.72837562  -1.23955953
O    2.83921947  -0.37141699  -1.70594753
H    2.93691088   0.32430147  -1.03897265
C    4.07122973  -0.47711707  -2.40129779
H    3.94361777  -1.26502234  -3.14856325
H    4.90745486  -0.76230862  -1.74390091
H    4.34370324   0.45128780  -2.92722545
O    2.81363221   1.61028431   0.26550307
H    2.29461927   2.42759235   0.29800568
C    2.47250169   0.83815038   1.40566662
H    3.06600497  -0.07863384   1.35326670
H    1.40835776   0.55529369   1.42482738
H    2.71377580   1.34740491   2.35182938
O    1.26842992  -2.15170082   2.70826162
H    1.32928036  -2.25885082   1.74740816
C    2.19388342  -3.04885696   3.30086642
H    2.11224404  -2.91507255   4.38295788
H    3.23499800  -2.84031356   3.00868937
H    1.97245181  -4.10252183   3.06948856
O    0.94055184   3.72692702   0.47398831
H    0.15927093   3.22314785   0.74644006
C    1.11031372   4.79060449   1.39719193
H    1.99442376   5.34769752   1.07550575
H    1.28489187   4.43734567   2.42554401
H    0.25512281   5.48435968   1.40857476
O    1.36493501  -2.20328124  -0.09834494
H    1.90519179  -1.70232554  -0.72730383
C    0.00481520  -1.89468759  -0.35791734
H   -0.58962833  -2.46726060   0.35921739
H   -0.31106057  -2.18513578  -1.37213609
H   -0.22367662  -0.82687961  -0.21524658
O   -1.12484911   2.02233981   1.27828327
H   -1.05505124   1.27460582   1.89020272
C   -2.23216486   1.77880130   0.42559657
H   -2.29627967   2.63047693  -0.25706228
H   -3.18429273   1.70886523   0.97453992
H   -2.11125729   0.86573516  -0.17811604
