60
Energy:   -336.72808027
O    0.95116681  -2.65648294   1.89371875
H    0.01776266  -2.62216763   2.15062812
C    1.12096560  -3.77436443   1.03695558
H    2.17767028  -3.79807777   0.75713758
H    0.52508232  -3.69719585   0.11405502
H    0.87674665  -4.72859074   1.52948636
O   -2.00633260   2.43069655  -0.08968953
H   -1.52613361   2.95483337   0.56842353
C   -3.18571815   3.14218192  -0.42935420
H   -3.71448234   2.53782284  -1.17140792
H   -2.97478588   4.12569688  -0.87766573
H   -3.85637924   3.28940100   0.43164381
O   -2.13248205  -0.38847144   0.26935790
H   -2.16839455   0.57254676   0.15283499
C   -1.10769058  -0.88652483  -0.57579240
H   -1.08089767  -1.97009052  -0.43208178
H   -0.11445605  -0.48389999  -0.32250256
H   -1.30157447  -0.68819617  -1.64155602
O    0.11089462   2.03629513  -1.97024570
H   -0.68330886   2.17932281  -1.43432855
C    1.23518091   2.36439916  -1.16970721
H    2.12095674   2.19765649  -1.78864441
H    1.31974408   1.72877107  -0.27438418
H    1.23607197   3.41799150  -0.84920803
O   -0.33715112   3.71855585   1.73849606
H    0.20920068   2.98262202   2.05206325
C    0.23230501   4.91935941   2.23480676
H   -0.39532489   5.73798221   1.87228419
H    1.25726228   5.08704349   1.86858008
H    0.24537301   4.96072862   3.33521357
O   -1.81542972  -2.28039285   2.33260998
H   -2.01266900  -1.65347766   1.62092375
C   -3.00916582  -2.48135426   3.07230073
H   -2.76913049  -3.18990012   3.86969086
H   -3.81881802  -2.91369349   2.46375867
H   -3.38133942  -1.55575595   3.53870389
O    1.15715138   1.46706237   2.45383923
H    1.73573992   0.86438535   1.96349345
C    0.19383479   0.67960604   3.13535773
H   -0.44950144   1.37410917   3.68241266
H    0.64730604  -0.01119338   3.86332567
H   -0.43971533   0.09526243   2.44984032
O    0.94157154  -0.29830153  -3.30688544
H    0.65396921   0.53204770  -2.89917435
C    1.70304579   0.02865761  -4.45831432
H    2.01898458  -0.91788693  -4.90521623
H    2.60625991   0.61165544  -4.21936848
H    1.12018795   0.58342873  -5.21016742
O    0.93175161  -2.99317908  -2.47873135
H    0.96042661  -2.07707672  -2.79235132
C   -0.13522181  -3.64453682  -3.14942842
H   -0.15322892  -4.67505492  -2.78447170
H    0.00249196  -3.67156920  -4.24171112
H   -1.11432818  -3.18886359  -2.93381312
O    2.50156563  -0.51017235   0.94412125
H    2.04949441  -1.29958763   1.27710536
C    3.08001482  -0.84146080  -0.30814800
H    3.58504769   0.05870007  -0.66889364
H    2.32971353  -1.13589985  -1.05856852
H    3.82871921  -1.64540251  -0.23135747
