60
Energy:   -336.88175406
O   -0.11101991  -1.16816469  -2.46891514
H   -0.05338989  -1.89575167  -1.83195421
C   -1.17896374  -0.32616386  -2.06510286
H   -1.22980926   0.48787392  -2.79328034
H   -1.01867278   0.11605033  -1.06934649
H   -2.15107702  -0.84362798  -2.06311069
O    0.97861168  -1.25741424   1.67684299
H    0.41179821  -0.89568337   2.37419265
C    1.52438218  -0.16449055   0.95560368
H    2.16004359  -0.58978126   0.17422824
H    2.14785990   0.49074184   1.58387383
H    0.75229577   0.45225259   0.46950923
O   -3.65092751   1.09961094  -0.19047231
H   -2.87288987   1.67110873  -0.11002986
C   -4.65260437   1.83068097  -0.87946713
H   -5.52170817   1.17232071  -0.96135444
H   -4.34505562   2.11820675  -1.89707218
H   -4.96241664   2.73954893  -0.34025222
O    2.64440902  -0.56230900  -2.57468396
H    1.68873266  -0.69507402  -2.66116761
C    3.25135626  -1.84211792  -2.49570309
H    4.32737864  -1.67406156  -2.39865627
H    3.08079505  -2.45005678  -3.39797608
H    2.91550572  -2.41869665  -1.61961023
O   -3.15579656  -0.79052817   1.83288081
H   -3.46189991  -0.17742820   1.14816741
C   -2.73309547  -1.98081703   1.18707124
H   -2.39155350  -2.66021884   1.97272223
H   -1.89501845  -1.81321002   0.49258429
H   -3.54691332  -2.47769552   0.63608158
O    1.20197031   2.81703039  -1.08474830
H    2.11410202   2.50675800  -0.98390156
C    0.90124756   2.82622368  -2.47111589
H   -0.12953941   3.17812564  -2.56665867
H    0.96391989   1.82547964  -2.92648484
H    1.54943722   3.50911829  -3.04232727
O    0.36886852  -3.02607420  -0.40436012
H    0.63191487  -2.46555281   0.34065375
C    0.44661484  -4.37616878   0.02428181
H    0.14711067  -4.99374052  -0.82682782
H   -0.23363886  -4.59623553   0.86189918
H    1.46620459  -4.67103152   0.31799943
O    3.71986561   1.53157869  -1.05617778
H    3.45455737   0.79997209  -1.63305436
C    4.96167006   1.18463563  -0.46449713
H    5.24577487   2.01942139   0.18195657
H    5.76145545   1.04090192  -1.20777451
H    4.89793374   0.27782188   0.15711678
O   -1.31967169   2.60442286   0.13382376
H   -0.45470615   2.75138135  -0.27685993
C   -1.15954239   2.74433471   1.53643456
H   -2.14309032   2.57569447   1.98328928
H   -0.82042019   3.75086524   1.82741526
H   -0.46085627   2.00618243   1.96039947
O   -0.94624685  -0.23152575   3.46343202
H   -1.75749133  -0.41052357   2.96516960
C   -1.28821913  -0.18228354   4.83935496
H   -0.36314595   0.02013239   5.38593762
H   -1.70196898  -1.13356953   5.20900798
H   -2.00446675   0.62152068   5.07101306
