60
Energy:   -337.06890083
O    0.03872082  -4.00817793  -0.65138542
H    0.61117070  -3.71685682  -1.37654500
C   -1.14911586  -4.53113913  -1.22417628
H   -1.78243050  -4.85454451  -0.39363024
H   -0.96159062  -5.40311873  -1.87013541
H   -1.70653627  -3.78080818  -1.80646769
O   -3.47276345   1.42169642   0.16195060
H   -2.95470551   0.87568317   0.77179384
C   -4.65706062   1.81518795   0.83659006
H   -5.22871174   2.42932324   0.13549232
H   -4.45416070   2.42059579   1.73385831
H   -5.28400130   0.95860751   1.12983513
O    2.45791310  -0.10988632   0.06935720
H    2.63080790   0.60175252   0.70347141
C    2.37819866  -1.32497708   0.79718534
H    2.18312196  -2.11584089   0.06782622
H    1.55748489  -1.32777005   1.53148667
H    3.31510592  -1.56838289   1.32229079
O   -0.78427458  -2.62599865   1.64375010
H   -0.50037043  -3.13855833   0.87232008
C   -0.72235868  -3.48027029   2.77464362
H   -1.04531205  -2.88710231   3.63449131
H    0.29662701  -3.84631323   2.97578554
H   -1.39306605  -4.34944357   2.68823316
O   -1.79395802  -0.01621808   1.87863475
H   -1.45316788  -0.92272516   1.85560721
C   -0.68991976   0.85394728   2.06954195
H   -1.09160299   1.87059976   2.09306920
H    0.04399765   0.79572939   1.25054669
H   -0.16474260   0.67229954   3.02031552
O    0.63719556  -0.24830622  -2.07221003
H    1.25785420  -0.12949093  -1.33798318
C   -0.67356867  -0.26253140  -1.52978164
H   -1.35990607  -0.39714251  -2.37020178
H   -0.93452311   0.67999858  -1.02350370
H   -0.83235904  -1.09208773  -0.82309979
O   -1.80540359   3.40816310  -0.90135295
H   -2.45129796   2.77584466  -0.55290335
C   -1.94012891   3.42703721  -2.31345303
H   -1.20547939   4.14419257  -2.68956933
H   -2.93832462   3.75732195  -2.64101165
H   -1.72926993   2.44910570  -2.77385046
O    2.51928436   2.09502548   1.83327151
H    1.96050334   2.62086817   1.24193699
C    2.84629880   2.90589871   2.95044649
H    3.47582517   2.29825103   3.60614920
H    1.95913801   3.21885949   3.52296602
H    3.41460257   3.80663688   2.67030560
O    0.87764492   3.38560107  -0.02963364
H   -0.04797338   3.48184981  -0.29868795
C    1.65505530   3.23825210  -1.20711194
H    2.69465373   3.13105689  -0.88581848
H    1.59156222   4.11458501  -1.87102955
H    1.38288373   2.34249880  -1.78704815
O    1.49867728  -2.83596398  -2.74716425
H    1.16485060  -1.92809134  -2.69472117
C    2.90098814  -2.76784880  -2.95067924
H    3.26064694  -3.79882527  -3.00740896
H    3.42709391  -2.26784618  -2.12243565
H    3.17017687  -2.26020329  -3.89015292
