60
Energy:   -338.05647791
O    0.61308621   0.29559768   2.40676979
H    0.50424487  -0.66301657   2.49415142
C   -0.63296424   0.83451343   1.99511233
H   -0.49251070   1.91479533   1.90157606
H   -1.43593067   0.65680907   2.72753529
H   -0.96185595   0.44715988   1.01809401
O    2.07523125  -1.67849495  -1.61955948
H    2.26100643  -1.98389473  -0.71920298
C    3.05642983  -2.24100676  -2.47592599
H    2.83229506  -1.88684940  -3.48578805
H    3.03071371  -3.34191552  -2.48669249
H    4.07835798  -1.91978407  -2.22047314
O    2.23243255   2.15171717   0.98036723
H    1.76449455   1.52191682   1.54852990
C    2.82943464   1.41702992  -0.07621070
H    3.35221696   2.14158803  -0.70644827
H    2.08931702   0.89265631  -0.70073897
H    3.56647040   0.68091811   0.28113371
O   -2.42997957   2.64884129  -0.36466905
H   -1.53923317   3.02640645  -0.41405214
C   -3.22759643   3.52784701   0.41230589
H   -4.22735498   3.08750360   0.45775618
H   -3.31599624   4.52995952  -0.03572683
H   -2.85660322   3.63959444   1.44315694
O    0.06520773  -2.50717778   2.44758560
H   -0.66276502  -2.53465049   1.80905275
C   -0.43117308  -2.98645390   3.68711546
H    0.40152438  -2.94875875   4.39470234
H   -0.78360793  -4.02822557   3.62985459
H   -1.24753000  -2.36494451   4.08719644
O    0.20264138   3.59984629  -0.36820188
H    0.96011841   3.21845351   0.09997690
C    0.65064554   4.00855959  -1.65069144
H   -0.21486809   4.43571346  -2.16441405
H    1.02764875   3.16984585  -2.25666602
H    1.43386079   4.78115774  -1.60126163
O    2.50587069  -2.50182131   1.03064162
H    1.71058115  -2.60971205   1.57313346
C    3.50258794  -1.90188695   1.84253279
H    4.39133284  -1.78764496   1.21598155
H    3.77437900  -2.52265454   2.71060799
H    3.21091886  -0.90425314   2.20644661
O   -3.23893108  -0.03245849  -0.45354584
H   -3.01496386   0.90953607  -0.42340923
C   -4.26195624  -0.20088488  -1.42183600
H   -4.50213526  -1.26735469  -1.44284498
H   -3.94364599   0.09734309  -2.43303132
H   -5.18097636   0.35111838  -1.16989998
O    0.79345863   0.40970727  -3.04745248
H    1.23018402  -0.33167173  -2.60242283
C   -0.47317935   0.59330356  -2.43552567
H   -0.95143156   1.43195356  -2.94877630
H   -0.39630913   0.84631921  -1.36648340
H   -1.12663007  -0.28718347  -2.53810285
O   -1.90566829  -2.33027269   0.48190848
H   -2.43217163  -1.57768442   0.17396630
C   -1.21472631  -2.85935868  -0.63844904
H   -0.62677623  -3.70602260  -0.27381207
H   -0.52238847  -2.13338350  -1.09276798
H   -1.89483245  -3.22829054  -1.42210855
