60
Energy:   -338.52215005
O   -2.91838255  -0.51229898   1.07550399
H   -2.47767693  -0.98088152   1.79981899
C   -2.66472951  -1.23226004  -0.12025936
H   -3.16819632  -0.69081603  -0.92576836
H   -3.06792795  -2.25670670  -0.09347516
H   -1.59222409  -1.28721466  -0.36416395
O   -1.25439210  -1.24537077  -3.22285777
H   -0.84243243  -0.38114948  -3.07509420
C   -2.24458923  -1.08433130  -4.22590798
H   -2.69850663  -2.06704722  -4.37990025
H   -1.82548877  -0.74748942  -5.18698534
H   -3.04045405  -0.38340192  -3.92913448
O   -1.22516756  -1.69467601   2.99539701
H   -0.59250514  -2.21243525   2.47569816
C   -0.53261304  -0.57633343   3.52663320
H   -1.25984475  -0.00412323   4.10903747
H   -0.12688912   0.08363456   2.74394062
H    0.29073734  -0.86581655   4.19825140
O    0.08318559   1.12229972  -2.57991342
H    1.04120850   1.23657332  -2.49298285
C   -0.51538569   1.57620419  -1.37649457
H   -1.59418446   1.44037239  -1.49150827
H   -0.32441271   2.64332909  -1.18271348
H   -0.19064514   0.99964025  -0.49621340
O    2.84363755   1.30395761  -1.99636889
H    2.87956697   1.23651724  -1.03066493
C    4.03889410   1.93409191  -2.42860301
H    3.98185612   2.00202878  -3.51838118
H    4.94102117   1.35819204  -2.16921256
H    4.15068174   2.95394122  -2.02836778
O    2.64884602   1.11059400   0.78846020
H    1.97027328   1.62829633   1.24665952
C    2.37911886  -0.26123945   1.02898883
H    3.15268247  -0.82993380   0.50585282
H    1.39952538  -0.57706082   0.63728639
H    2.42684423  -0.52300399   2.09762298
O    0.45227917  -3.09270299   1.22327356
H    0.50373538  -2.98598030   0.26182372
C    0.24709433  -4.47025418   1.49306176
H    0.19150701  -4.57258369   2.58022501
H    1.07399910  -5.10194865   1.13255109
H   -0.69343923  -4.85177751   1.06572831
O    0.52175190   2.59175395   1.87926632
H   -0.43911056   2.49681676   1.80082173
C    0.83492107   3.96352956   1.69846117
H    1.92082724   4.05256618   1.78992405
H    0.37391936   4.60920923   2.46223635
H    0.54412645   4.33870896   0.70475284
O    0.50528633  -2.68055813  -1.54573133
H   -0.14771019  -2.31899341  -2.16321798
C    1.79342635  -2.34436558  -2.03583706
H    2.51676151  -2.75916492  -1.32857972
H    1.95637682  -1.25669274  -2.09233731
H    1.99783196  -2.77830523  -3.02714531
O   -2.21971531   2.15618944   1.54272639
H   -2.54086422   1.27490177   1.30061343
C   -3.18016470   2.74186020   2.40705302
H   -2.80272087   3.73377277   2.66998041
H   -3.31794845   2.17103714   3.33869351
H   -4.16360160   2.86689926   1.92747567
