42
Energy:   -153.25854276
C   -1.26600828   0.96951935   1.23282268
H   -1.44099131   1.44496330   2.17528443
H   -0.61993215   0.12807797   1.37232589
H   -2.19708826   0.63993454   0.82128530
C   -0.60396982   1.97063954   0.26790639
N   -0.11105210   2.71601904  -0.45051764
C    1.66738875  -3.55426823   0.34140257
H    1.41539767  -4.26408321  -0.41857334
H    2.25485659  -4.03355453   1.09642924
H    2.22822410  -2.75235477  -0.09137636
C    0.37736706  -2.99700623   0.97140502
N   -0.58311273  -2.58209933   1.44047048
C   -2.51337225   3.20026606  -3.03698334
H   -1.66930096   3.67797009  -2.58505117
H   -3.18919370   3.94370396  -3.40503842
H   -2.18325862   2.58545328  -3.84811177
C   -3.23064438   2.32760377  -1.99028318
N   -3.76468609   1.67786702  -1.21096734
C    1.44074928   1.29181122  -3.28083839
H    2.46755341   1.44307597  -3.54101609
H    1.01862697   2.21519741  -2.94309619
H    0.90261157   0.94627946  -4.13869309
C    1.34497534   0.24242277  -2.15780177
N    1.27366729  -0.53889463  -1.32164997
C   -2.24206265  -1.48923071  -1.56767292
H   -2.37613918  -2.52860824  -1.78358498
H   -3.14497040  -1.09162689  -1.15346538
H   -1.44460385  -1.37107702  -0.86411180
C   -1.89732439  -0.73560798  -2.86567458
N   -1.64065108  -0.17450160  -3.83209582
C    2.73885599   1.30978472   1.45588689
H    2.39847150   1.32677585   0.44161381
H    3.66443150   1.84143411   1.53043872
H    2.00879257   1.77474968   2.08494498
C    2.94736431  -0.14905209   1.90301041
N    3.10260823  -1.23522241   2.23591419
C    0.48343610  -1.88053523   4.61210702
H    0.57911478  -2.05326252   5.66373008
H    1.31136616  -2.32549793   4.10079587
H   -0.42858100  -2.31597877   4.26066311
C    0.46675277  -0.36480750   4.34027781
N    0.45433127   0.76372069   4.13788861
