42
Energy:   -153.74549713
C   -0.78662469  -2.51807723   3.04486363
H   -0.11950899  -1.68612530   3.13268625
H   -0.42364377  -3.18861816   2.29418474
H   -0.84386264  -3.02990781   3.98276148
C   -2.18681641  -2.01373408   2.64900868
N   -3.22932279  -1.63822769   2.35427668
C    0.84581694  -0.63643134  -4.33874951
H    0.14571534   0.16984464  -4.27036108
H    0.89495064  -0.98128366  -5.35046184
H    1.81243160  -0.29658630  -4.03043060
C    0.39152079  -1.78966132  -3.42481538
N    0.05327665  -2.64829347  -2.74434988
C   -0.13186667   2.65222267  -1.64230642
H    0.02161116   3.62583578  -1.22586645
H   -0.82294667   2.10844364  -1.03270664
H   -0.52671990   2.74596048  -2.63235856
C    1.21017447   1.89866919  -1.69410177
N    2.20938509   1.33761437  -1.73266576
C    1.93081559  -1.78890997  -0.03475831
H    1.70056794  -2.74925376  -0.44661510
H    2.40835373  -1.91318422   0.91466905
H    2.58656003  -1.26434591  -0.69788037
C    0.63111801  -0.98284949   0.14594228
N   -0.33656591  -0.38270082   0.28048208
C   -1.57134109   1.53269230   2.75022483
H   -2.13854476   1.03834163   1.98943735
H   -2.23767598   1.98897644   3.45215196
H   -0.95468144   0.81918624   3.25573357
C   -0.68349500   2.61439692   2.10738393
N   -0.02245323   3.41977518   1.62875965
C    3.20689097   1.99118431   1.54403813
H    2.51272150   2.70415328   1.15071362
H    3.70537736   1.49605165   0.73703499
H    3.92804095   2.49436221   2.15367229
C    2.45061013   0.95346100   2.39419671
N    1.88752466   0.18082882   3.02717841
C   -3.08074328  -1.40747557  -1.27068303
H   -2.32891186  -2.16222024  -1.17063218
H   -3.98867594  -1.85263341  -1.62052855
H   -3.25244985  -0.94688447  -0.32027692
C   -2.60894425  -0.34341791  -2.27904159
N   -2.25766842   0.44882138  -3.02981036
