42
Energy:   -154.31398358
C   -1.24666729   3.09409695  -2.78259639
H   -0.30819106   3.55764703  -2.56059665
H   -1.83784101   3.75464846  -3.38183293
H   -1.07680810   2.18310265  -3.31751353
C   -1.99099484   2.78738122  -1.46977426
N   -2.54518053   2.55901741  -0.49231851
C   -3.85369884  -0.66611333  -0.90322629
H   -3.04058210  -0.69605083  -0.20835573
H   -4.30787763  -1.63311435  -0.96263786
H   -4.57845583   0.04869061  -0.57355720
C   -3.32719193  -0.26004972  -2.29229174
N   -2.93518361   0.04228310  -3.32651411
C    0.17150948  -0.56349182  -1.89881505
H    0.59891979   0.10824124  -2.61365440
H   -0.51147072  -0.02959790  -1.27160342
H   -0.35060221  -1.34448472  -2.41101479
C    1.29079159  -1.17464857  -1.03551035
N    2.12414799  -1.62968255  -0.39274077
C    2.25627064  -1.73992975   2.99974877
H    1.21604667  -1.94374362   2.85382349
H    2.56475186  -2.12241910   3.95024354
H    2.82411208  -2.21058893   2.22454872
C    2.49216640  -0.21869130   2.95747863
N    2.66780152   0.91393988   2.92600659
C    3.99258821   1.53059933  -0.07096043
H    4.23071842   2.03565695   0.84178870
H    4.73952876   1.74961198  -0.80513505
H    3.96196204   0.47525910   0.10287321
C    2.61889907   2.00738127  -0.57816565
N    1.59612507   2.36236709  -0.95580298
C   -0.40412099  -3.87791287   1.06594657
H   -0.75329489  -3.27878602   1.88082373
H    0.62510235  -3.65589777   0.87540077
H   -0.50532073  -4.91344472   1.31560934
C   -1.23723332  -3.56935115  -0.19195387
N   -1.85752331  -3.33961292  -1.12851792
C   -0.48239534   2.12279424   2.03219663
H   -1.42587269   2.57150048   2.26330997
H   -0.06736842   2.59179401   1.16461899
H    0.18463714   2.24880773   2.85929238
C   -0.68185023   0.62061570   1.75782938
N   -0.83035347  -0.49782450   1.55355048
