42
Energy:   -154.81642792
C   -2.74405917   0.94460283  -0.21628352
H   -1.98648015   0.19106672  -0.16009165
H   -3.35214798   0.77528154  -1.08026118
H   -3.35343567   0.90393114   0.66229783
C   -2.08216553   2.33136693  -0.31817639
N   -1.58935563   3.36387583  -0.39404027
C    2.16914749  -1.94906651  -0.11339021
H    1.24184710  -1.48464485  -0.37668983
H    2.43891853  -2.65931595  -0.86682793
H    2.93248048  -1.20318634  -0.03667888
C    2.01686908  -2.66876940   1.23954698
N    1.90349089  -3.20462092   2.24687021
C   -0.87379875   3.37610796  -3.73109156
H   -0.66025803   3.70518105  -4.72658713
H   -0.00213223   2.91838956  -3.31205642
H   -1.15921556   4.21517577  -3.13159049
C   -2.02490113   2.35362880  -3.76425290
N   -2.88194917   1.59234658  -3.78894303
C    1.69560084   2.14547645   0.26988059
H    1.14475316   3.03926675   0.06346859
H    1.95542958   1.66602196  -0.65072329
H    2.58718060   2.39215686   0.80759184
C    0.83124065   1.19410552   1.11804026
N    0.18768519   0.48576663   1.74953368
C    2.56551939  -0.57329500   4.32087618
H    1.51909529  -0.44445216   4.13840337
H    2.84967634  -0.00664828   5.18288860
H    2.77307535  -1.60914949   4.49065567
C    3.36389022  -0.08342304   3.09848938
N    3.95831360   0.28130889   2.18836685
C   -1.48832017  -1.52970075  -3.18803132
H   -2.46786207  -1.20240879  -2.90824962
H   -1.29505321  -2.48839969  -2.75393072
H   -1.42726899  -1.60192111  -4.25384372
C   -0.44453821  -0.51700159  -2.68151416
N    0.33260491   0.23699896  -2.30438911
C   -1.43394240  -2.47850093   2.72285912
H   -2.42558677  -2.64245163   3.08982207
H   -1.07649009  -1.53219306   3.07161170
H   -0.78950574  -3.25575750   3.07708040
C   -1.44868701  -2.48584199   1.18294721
N   -1.45966504  -2.49130774   0.03641279
