42
Energy:   -154.79191155
C   -0.09540349   0.65677072  -2.73930142
H   -0.73345952   1.37862104  -3.20482996
H   -0.64999224  -0.23772257  -2.54639689
H    0.72524813   0.43451146  -3.38894042
C    0.43998952   1.22513576  -1.41192977
N    0.83861395   1.64830936  -0.42364124
C   -2.62598287   0.90087462   1.01976672
H   -2.87164969   1.60121898   1.79052335
H   -1.60804743   0.59052445   1.13107399
H   -3.26881555   0.04873003   1.09402863
C   -2.81227420   1.56602693  -0.35663001
N   -2.95097656   2.06126305  -1.38141993
C    2.56989977  -1.39343785   0.41132463
H    2.53921954  -2.40111881   0.76984658
H    1.69434640  -0.87199745   0.73752288
H    3.44036983  -0.90435174   0.79600079
C    2.62137264  -1.39753331  -1.12780947
N    2.65969653  -1.40058257  -2.27376477
C   -0.75791408  -3.19344732   1.88267131
H   -1.10983490  -2.60899057   2.70696629
H    0.27976254  -3.41537091   2.02006219
H   -1.31384230  -4.10614308   1.82947961
C   -0.94476907  -2.40162304   0.57511653
N   -1.08389110  -1.81207388  -0.39841745
C    1.20162165   2.32188701   3.04432853
H    2.13979164   2.35238182   3.55795029
H    0.49752186   2.94900304   3.55016257
H    1.33279932   2.66987472   2.04103592
C    0.67593680   0.87457423   3.02106559
N    0.28454053  -0.20301591   3.00374528
C    0.49498711  -3.98558326  -2.86671538
H    0.02135131  -4.81644130  -3.34655309
H    1.33280839  -3.66653750  -3.45080817
H   -0.20379755  -3.18038555  -2.77585429
C    0.97656066  -4.40783972  -1.46622032
N    1.33511406  -4.72222885  -0.42348810
C   -0.71474884   4.77915357  -0.72396115
H   -0.70670260   5.84611858  -0.80409289
H   -1.42968749   4.37533743  -1.41003283
H    0.25735778   4.39674201  -0.95562732
C   -1.09645971   4.37510095   0.71222766
N   -1.38066080   4.07426541   1.78153551
