42
Energy:   -156.93190509
C    0.92513722   0.72806719  -4.01529197
H    1.23154562   1.58699845  -3.45560352
H    1.20830688   0.85036349  -5.03986879
H    1.39802501  -0.14491453  -3.61631936
C   -0.60402209   0.57227383  -3.92042239
N   -1.74255070   0.45627859  -3.84978768
C   -2.72834426   1.13366338  -0.46652231
H   -3.25526183   0.48730429   0.20390889
H   -3.15056187   1.05202704  -1.44630131
H   -2.81063815   2.14461541  -0.12578368
C   -1.24385480   0.72641669  -0.51170169
N   -0.13858492   0.42320302  -0.54533980
C    3.19871658  -0.74090869  -0.56504713
H    3.91135149  -1.37308695  -1.05228660
H    2.21196563  -1.11763413  -0.73621840
H    3.39675630  -0.72431628   0.48633484
C    3.30820979   0.68728034  -1.13063296
N    3.38973247   1.75063200  -1.55173732
C    0.51273681  -2.29297637   1.72161435
H    0.69452052  -3.15644019   1.11639943
H    0.84667960  -2.48092521   2.72064214
H    1.04511969  -1.45670244   1.31898116
C   -0.99575986  -1.98333686   1.73430902
N   -2.11890420  -1.75279617   1.74376078
C   -1.21067801   0.48477057   4.29260508
H   -0.28107037   0.00929637   4.05882290
H   -1.99687477  -0.24080991   4.27453019
H   -1.15204828   0.92293869   5.26701277
C   -1.50146597   1.58275888   3.25267045
N   -1.71797082   2.40026109   2.47839185
C   -2.20387354  -2.60772803  -1.81651756
H   -2.54769699  -2.27078248  -0.86092701
H   -2.66440874  -3.54458885  -2.05124766
H   -2.46227124  -1.88625966  -2.56325253
C   -0.67429611  -2.78267393  -1.77927755
N    0.46454382  -2.91292910  -1.75155068
C    1.49313141   3.01542376   1.08269445
H    1.30194915   2.75301866   0.06313912
H    2.35887921   3.64217157   1.13336035
H    0.64941858   3.53982429   1.48025178
C    1.73657753   1.73629560   1.90498707
N    1.91783423   0.78392655   2.51722129
