42
Energy:   -157.97787545
C    1.34664422  -3.58753087   0.27511572
H    0.87605751  -4.14159454  -0.51003507
H    0.59750887  -3.14983760   0.90131051
H    1.95917469  -4.24390741   0.85724573
C    2.22054777  -2.47535093  -0.33393959
N    2.87120869  -1.64728242  -0.78740896
C    1.57280377   1.89850524  -0.97861377
H    1.99855475   0.92928225  -0.82291193
H    1.27708347   2.31350286  -0.03774950
H    2.29815571   2.53709761  -1.43792133
C    0.34169000   1.77707963  -1.89579135
N   -0.57493016   1.68667274  -2.57867176
C   -1.54031048   0.45616331   3.44648357
H   -2.57766837   0.64479423   3.26425525
H   -1.36310784   0.42649784   4.50129080
H   -1.26689586  -0.48280573   3.01233997
C   -0.69584107   1.57878743   2.81546337
N   -0.06709520   2.41463212   2.34564015
C    1.19984605  -1.07518545  -3.93396978
H    1.90243745  -0.69153923  -3.22398311
H    0.57736457  -0.27911314  -4.28565825
H    1.72644995  -1.50733209  -4.75909807
C    0.32663011  -2.15113203  -3.26208223
N   -0.32351884  -2.95222317  -2.76183141
C    2.55530570   0.01976244   2.31080485
H    3.43911311  -0.37349704   1.85349574
H    2.82765336   0.75162277   3.04231445
H    1.93917566   0.47453443   1.56349949
C    1.77807196  -1.12210341   2.99172342
N    1.19938611  -1.97227444   3.49869824
C   -2.63605624  -1.01789545  -1.11719649
H   -2.65123793  -0.34059535  -1.94540798
H   -3.50018318  -0.85519983  -0.50751308
H   -2.63968036  -2.02463494  -1.47963483
C   -1.36529084  -0.77790862  -0.28103764
N   -0.41914823  -0.59922753   0.34152063
C   -2.26902450   3.66326665  -0.22159436
H   -2.74683920   4.58214428   0.04721263
H   -2.25298151   3.56802062  -1.28722558
H   -1.26633845   3.66006923   0.15191542
C   -3.04753819   2.48245262   0.38766312
N   -3.62717702   1.60328291   0.84128300
