42
Energy:   -153.58231866
C   -5.00388071   0.80759631   0.21368223
H   -5.92785348   0.45066017  -0.19100419
H   -5.20368042   1.54802892   0.95983149
H   -4.46895753  -0.00759112   0.65439272
C   -4.15637638   1.42890970  -0.91206467
N   -3.52537089   1.89150577  -1.75023441
C   -0.91610889   2.67700967   0.44058185
H   -0.73561315   3.73150495   0.42157738
H   -1.92431377   2.49321467   0.74822029
H   -0.76198851   2.27109269  -0.53736366
C    0.05335713   2.00806795   1.43267692
N    0.77516864   1.51001043   2.17133679
C    1.61247539  -1.89848824   1.13231687
H    0.96567325  -1.05447985   1.25146812
H    2.62964340  -1.56745640   1.10612051
H    1.47711127  -2.57038885   1.95397690
C    1.27424793  -2.62263443  -0.18404724
N    1.02242222  -3.16179419  -1.16414015
C   -1.10516192  -0.56817607  -2.41229840
H   -0.13327409  -0.97762434  -2.59309206
H   -1.11187985   0.46717260  -2.68231151
H   -1.82873033  -1.09450633  -2.99908992
C   -1.45288806  -0.71148291  -0.91892983
N   -1.71178598  -0.81818137   0.19295095
C   -1.57962246  -0.67021594   3.64405831
H   -1.59960048  -1.40735348   2.86873301
H   -1.92315170  -1.10562799   4.55910099
H   -0.57870754  -0.31430859   3.77211445
C   -2.49701463   0.50514049   3.25866391
N   -3.18005481   1.38024679   2.97172027
C    3.31750117  -1.87949035  -3.32158493
H    2.57470515  -1.11424831  -3.40852680
H    2.84551880  -2.83939135  -3.34845162
H    4.00907835  -1.79922129  -4.13409768
C    4.07052111  -1.71485411  -1.98837231
N    4.63117868  -1.59227494  -0.99573492
C    3.72510993   1.51117804   0.30588675
H    3.90349365   2.56565608   0.27189443
H    4.62220757   0.98912082   0.04594217
H    3.42358397   1.23211765   1.29386776
C    2.61119073   1.14652774  -0.69301974
N    1.78182725   0.87502902  -1.43675102
