42
Energy:   -156.61847544
C   -2.53207301   1.80234170  -1.84744319
H   -2.81418981   2.18737556  -0.88981110
H   -2.42089783   0.73990650  -1.78603779
H   -3.28920782   2.04085235  -2.56491002
C   -1.19633437   2.43401732  -2.28148027
N   -0.20181624   2.90432853  -2.60464061
C   -3.08202106  -0.98505330   1.02577305
H   -3.65833791  -0.54059829   1.81013191
H   -3.71647728  -1.59826961   0.42052091
H   -2.64819863  -0.21557552   0.42195095
C   -1.96379096  -1.84963750   1.63704681
N   -1.13121783  -2.49335974   2.09216790
C    2.04840510   0.18945589  -2.21521981
H    2.30151713  -0.74351385  -2.67391574
H    2.90868590   0.58809936  -1.71933734
H    1.71815864   0.87758975  -2.96509192
C    0.92125773  -0.03191244  -1.18948355
N    0.08204529  -0.19673123  -0.42577628
C    0.05456990   0.76436548   2.98440893
H    0.84470598   1.35536745   3.39829518
H    0.46758017   0.02220744   2.33362244
H   -0.48432140   0.28540498   3.77503659
C   -0.90146250   1.67126392   2.18745394
N   -1.61327209   2.34649103   1.59408473
C    2.56551916  -2.02389492   1.72863525
H    1.59478850  -2.26378888   2.10946730
H    2.70296520  -0.96288951   1.74522453
H    3.31242118  -2.48985067   2.33684715
C    2.68984577  -2.53505456   0.28127258
N    2.78241258  -2.91563614  -0.79635473
C   -0.52167923  -3.50190266  -1.49616231
H   -0.83691360  -4.52441182  -1.49458459
H   -0.20273351  -3.22548190  -0.51292059
H    0.29053643  -3.38012987  -2.18200209
C   -1.69600629  -2.60335327  -1.92647028
N   -2.57034617  -1.93434241  -2.24685412
C    1.44515418   3.89089726   0.14081003
H    1.68656962   4.73955966   0.74611236
H    0.39015043   3.71596259   0.17636339
H    1.74182531   4.07783937  -0.87009945
C    2.18912982   2.65217389   0.67341180
N    2.74305350   1.72988803   1.06995803
