42
Energy:   -153.43444548
C   -0.91847288   0.66709755   2.71177091
H   -0.06022845   1.04384778   3.22788713
H   -0.87941784  -0.40191905   2.68774404
H   -1.80635589   0.98022692   3.22021250
C   -0.93202556   1.21277241   1.27175172
N   -0.94211614   1.61905215   0.19959197
C    0.80506841  -1.91230167   0.32142129
H    1.17737558  -2.81591652  -0.11420213
H   -0.12265940  -1.64878208  -0.14201977
H    0.65092612  -2.05900195   1.37004814
C    1.82631046  -0.77990222   0.10616291
N    2.58667158   0.06322065  -0.05410674
C    4.01670272   0.54418043   3.23686466
H    4.13254519   0.75863475   2.19499612
H    4.89250567   0.04686444   3.59817489
H    3.87753019   1.45801381   3.77578827
C    2.78977680  -0.36394875   3.44071310
N    1.87627469  -1.04009220   3.59248754
C    0.47381947   0.60315516  -2.91645264
H    0.58971770   1.12289504  -1.98836954
H    0.81203519   1.22552251  -3.71843026
H    1.05162150  -0.29718344  -2.89561237
C   -1.01137079   0.25518844  -3.12794506
N   -2.11716245  -0.00388860  -3.28541077
C   -2.42392706  -3.49722172  -2.58663443
H   -2.67877165  -4.32130298  -3.21975724
H   -2.98459456  -2.63468070  -2.88086911
H   -2.65441239  -3.74306434  -1.57108679
C   -0.91847005  -3.19874488  -2.71356257
N    0.20241113  -2.97651531  -2.80806633
C   -4.17361858   0.39001253  -0.74291179
H   -4.98041384   0.65408007  -0.09156709
H   -4.56516711   0.09257257  -1.69323716
H   -3.52813793   1.23367229  -0.87133315
C   -3.37790751  -0.77619759  -0.12777128
N   -2.78546446  -1.64449404   0.33022879
C    2.06013328   3.44650971  -0.13940767
H    1.10787863   3.30690670  -0.60697826
H    2.76791157   2.76356372  -0.56075520
H    2.39321594   4.45037785  -0.30128353
C    1.93260620   3.18554524   1.37295287
N    1.83765650   2.99124533   2.49897403
