42
Energy:   -153.89568174
C   -1.99353047   2.10481990  -3.75665139
H   -2.90515865   2.57097199  -3.44594823
H   -1.96938274   1.09606895  -3.40064927
H   -1.93777892   2.10737327  -4.82519448
C   -0.79646046   2.88208306  -3.17830430
N    0.09481258   3.46079082  -2.74769860
C   -2.62866578  -0.50571637   0.75638060
H   -3.03549331  -1.44023542   0.43070334
H   -2.94898722  -0.30687151   1.75775665
H   -1.56009307  -0.55203946   0.72628682
C   -3.12006159   0.61977713  -0.17280965
N   -3.48592811   1.45775821  -0.86463402
C    2.30287656   0.94912317  -1.48603204
H    2.62238829   1.00334254  -0.46629056
H    2.27098965   1.93416247  -1.90266127
H    2.99034626   0.34806912  -2.04372240
C    0.89946690   0.31843499  -1.55140576
N   -0.14543539  -0.15114104  -1.60007946
C    3.44735820  -2.26341700   1.70355695
H    3.65983391  -1.26553761   2.02603327
H    4.24502894  -2.91173722   2.00071242
H    2.53307249  -2.59528898   2.14947367
C    3.30939016  -2.28887336   0.16996092
N    3.20666668  -2.30782678  -0.97187103
C   -0.16932405  -0.65839054   3.74155627
H    0.44177461  -1.08090642   4.51158156
H   -0.76143941  -1.42864114   3.29321210
H   -0.81218355   0.08526778   4.16417082
C    0.72859293  -0.01200935   2.67032499
N    1.39713293   0.46925083   1.87274461
C   -0.13813141  -3.45419256  -1.46912176
H   -0.25592580  -4.50123229  -1.65548825
H    0.77318191  -3.11302426  -1.91410639
H   -0.96345157  -2.92136955  -1.89320356
C   -0.09236134  -3.20513175   0.04991537
N   -0.05828344  -3.01969466   1.18090757
C   -0.62762673   3.30121008   0.59700538
H   -0.24693567   4.27364204   0.83013749
H   -1.34559081   3.37911089  -0.19252494
H    0.17711384   2.66824523   0.28612404
C   -1.30043174   2.70051121   1.84524185
N   -1.80136565   2.25326359   2.77461064
