42
Energy:   -153.61957658
C    2.45002742  -3.80029279  -0.95485483
H    3.15812652  -3.25201446  -1.54042014
H    1.71705305  -4.23835503  -1.59964095
H    2.95620928  -4.57232141  -0.41388273
C    1.75730449  -2.84777576   0.03733782
N    1.24154078  -2.13858354   0.77607035
C   -0.84752093  -1.03326518  -2.50501863
H   -1.18688747  -0.05264335  -2.76600020
H   -0.99537414  -1.19487080  -1.45767812
H   -1.40103279  -1.76168136  -3.05993625
C    0.65035727  -1.16366169  -2.83812171
N    1.76559567  -1.26074783  -3.08613209
C    2.82349632   0.78047696  -0.32790979
H    2.73878306   0.25608650   0.60092739
H    3.55482966   1.55590472  -0.23430198
H    3.12286010   0.09874419  -1.09636333
C    1.46198427   1.40035758  -0.69346823
N    0.44827667   1.86188687  -0.96564311
C   -2.02379729  -3.79417345   1.08282257
H   -2.22753797  -4.72998327   1.55994929
H   -2.92532104  -3.22105526   1.02208070
H   -1.29584887  -3.25466771   1.65196557
C   -1.48074334  -4.04865403  -0.33560333
N   -1.07641499  -4.23812640  -1.39168589
C   -0.33032844   0.52037221   2.44465585
H    0.63688869   0.28550396   2.05193697
H   -0.43478181   0.08794321   3.41779189
H   -0.43927361   1.58262603   2.51282373
C   -1.41526564  -0.04807103   1.51117658
N   -2.22305070  -0.47130287   0.81615882
C    0.81551365   4.86949219   1.22804028
H    0.03906038   5.16125383   1.90398085
H    0.38148009   4.53850480   0.30773527
H    1.45700353   5.70491228   1.03972379
C    1.63444537   3.72356550   1.85077848
N    2.24417725   2.87037099   2.31443537
C   -2.93420386   2.42989910  -0.93935530
H   -2.33647637   1.56572579  -1.14141103
H   -2.78940690   3.15295097  -1.71468035
H   -3.96600270   2.14905165  -0.90173954
C   -2.51786422   3.03721996   0.41320622
N   -2.20788044   3.48939795   1.42024976
