42
Energy:   -154.53075099
C    0.09800501  -0.74472563  -4.69754002
H    0.41723993  -1.76160311  -4.60293859
H    0.58323773  -0.29534510  -5.53867344
H   -0.96209902  -0.71546038  -4.83974444
C    0.46593094   0.02992705  -3.41842168
N    0.73986852   0.60669119  -2.46605993
C    2.31891513  -1.82197078  -0.56192002
H    1.95174040  -2.45816611  -1.33995498
H    3.17675859  -2.27240869  -0.10792731
H    2.59099746  -0.87337148  -0.97547735
C    1.22112182  -1.62330473   0.49967390
N    0.40376480  -1.47538882   1.29007882
C    2.55150003  -0.71924376   4.20507079
H    3.06542104  -1.46186355   4.77891852
H    1.58022114  -1.08192174   3.94053136
H    2.45272943   0.17448567   4.78506316
C    3.35191070  -0.41474299   2.92514031
N    3.94785284  -0.18802832   1.97217389
C   -2.08158969   2.81003279  -1.90079650
H   -1.96110152   3.67589456  -2.51777800
H   -1.14690072   2.56771547  -1.43977813
H   -2.81125678   3.00996949  -1.14415236
C   -2.55008169   1.62483338  -2.76532968
N   -2.89889527   0.74239854  -3.40901392
C   -2.26805248  -1.55181067  -0.93610288
H   -1.82749335  -0.58652681  -0.79813590
H   -2.47150505  -1.99072368   0.01828778
H   -3.18125544  -1.45196642  -1.48472895
C   -1.29497733  -2.45309393  -1.71867125
N   -0.57047866  -3.12414028  -2.30132898
C    1.26200905   1.99771534   0.61953779
H    1.23761910   2.98981496   0.21948322
H    0.48226714   1.41482963   0.17552664
H    2.20933901   1.54939863   0.40395216
C    1.05591044   2.05399423   2.14464633
N    0.90246066   2.09589642   3.28015896
C   -1.93568082   0.03163423   3.40544596
H   -1.32330173   0.62219480   4.05439145
H   -1.45491664  -0.90540021   3.21641857
H   -2.88406665  -0.14133319   3.86971492
C   -2.14402368   0.77924274   2.07530507
N   -2.29914441   1.33587125   1.08495472
