42
Energy:   -154.11655756
C   -2.57906108   2.62123314  -1.56334146
H   -1.66037205   3.12056863  -1.79044217
H   -3.39007560   3.13343143  -2.03748011
H   -2.53542349   1.61384420  -1.92133919
C   -2.79683776   2.61526767  -0.03882917
N   -2.95898240   2.61082611   1.09623953
C    0.88993831  -3.76534915   2.82093701
H    1.73134481  -4.27790559   2.40353890
H    0.59847523  -4.24226289   3.73335229
H    1.15459411  -2.74771527   3.01912299
C   -0.28247772  -3.80588391   1.82324086
N   -1.15539474  -3.83606389   1.08041073
C   -2.58207193  -0.70505565   1.56450518
H   -3.23671860  -0.05195074   2.10282841
H   -2.83975805  -1.72184212   1.77579226
H   -2.68060743  -0.52289098   0.51474051
C   -1.12717467  -0.44380655   1.99650388
N   -0.04393753  -0.24929471   2.31814654
C    0.31141039   3.08728567   2.43057450
H    0.97458530   2.36750534   2.86302739
H   -0.70084526   2.80969344   2.63837282
H    0.50984632   4.05181314   2.84915427
C    0.52822670   3.13455812   0.90664668
N    0.68965629   3.16975461  -0.22798685
C    1.05167413   1.92765189  -3.34938024
H    1.64294464   2.72024447  -2.94060602
H    0.16264590   1.80848946  -2.76600367
H    0.78689229   2.16424852  -4.35874227
C    1.86131202   0.61789128  -3.32460887
N    2.46412423  -0.35728504  -3.30616545
C    2.49183380   0.13866539   0.16034473
H    2.64642788   0.58390763   1.12094880
H    1.51414830   0.38857335  -0.19543071
H    3.22588855   0.50670755  -0.52566379
C    2.61998027  -1.39153958   0.27718326
N    2.71539115  -2.53084673   0.36417486
C    0.21484199  -2.89350963  -2.01811031
H   -0.48557838  -3.50093052  -2.55229319
H    0.46985957  -3.37097842  -1.09513215
H    1.09773973  -2.76404140  -2.60855815
C   -0.41482482  -1.51841452  -1.72788083
N   -0.88364039  -0.49459371  -1.51179180
