42
Energy:   -154.70912984
C    3.70860300  -1.66915723   3.01200476
H    4.11088249  -1.49236199   3.98761474
H    3.60211637  -0.73788125   2.49597692
H    4.36990793  -2.30712387   2.46375896
C    2.33109522  -2.34575763   3.13961438
N    1.30547806  -2.84951737   3.23462554
C   -1.79518901  -0.09155674  -3.35072763
H   -1.61597664   0.95526193  -3.48093437
H   -2.67991881  -0.37095542  -3.88372730
H   -0.96139454  -0.64581635  -3.72819570
C   -1.97981240  -0.39834885  -1.85293165
N   -2.11727290  -0.62676952  -0.73775446
C    0.71778918  -2.80089114  -0.37084580
H    0.31991053  -3.12198512   0.56909644
H    0.42164434  -3.48703430  -1.13661657
H    0.34380019  -1.82537469  -0.60192799
C    2.25493153  -2.75523696  -0.28893675
N    3.39940388  -2.72124535  -0.22795174
C    3.74857079   0.56962865  -1.19796931
H    4.23681716   1.41329044  -1.63927471
H    4.38576859  -0.28723104  -1.26630323
H    3.53856038   0.77681731  -0.16944242
C    2.43102814   0.29042648  -1.94478088
N    1.45005774   0.08254778  -2.50081603
C   -0.41563021   2.77912157  -0.83040117
H   -1.01476959   3.04167289  -1.67715909
H   -0.03476532   1.78721530  -0.95674580
H    0.40014844   3.46608908  -0.74391454
C   -1.27559108   2.84012794   0.44566526
N   -1.91587103   2.88554994   1.39575472
C   -1.01566329  -0.33205822   2.49236645
H   -1.85364859   0.05544411   1.95151272
H   -1.02984663   0.04821803   3.49241040
H   -1.06969005  -1.40042623   2.51624106
C    0.28858299   0.10056662   1.79711299
N    1.25965363   0.42267547   1.27946518
C   -4.84981691   1.62527294   0.17249033
H   -4.36504584   0.72109197   0.47638828
H   -5.89544764   1.44178815   0.03874129
H   -4.71239737   2.37381872   0.92461676
C   -4.24037861   2.11335306  -1.15489912
N   -3.78662410   2.47675090  -2.14320090
