46
Energy:   -671.55999670
O    2.65489493  -0.16647374   2.15316752
H    1.98727461   0.43655202   1.82625027
H    3.19295451   0.36591771   2.73907116
O   -1.29324514  -0.11079787   3.16118646
H   -0.69717540  -0.85777386   3.10678436
H   -1.61652638  -0.12684727   4.06199915
O    0.64873673  -1.99551314   2.64060681
H    1.44056960  -1.45952097   2.59650538
H    0.93147084  -2.80710701   3.06204324
O    1.55080162   0.71455552  -1.91147971
H    2.20122916   0.14240437  -1.50427100
H    1.86962555   0.84264093  -2.80488739
O    0.37501195  -1.68422344  -0.12345706
H    1.30418762  -1.70098947  -0.35276756
H    0.35175889  -1.92793110   0.80190651
O    3.09926864  -1.08085541  -0.47276712
H    3.24374983  -0.81774314   0.44827598
C    4.22066114  -1.84710614  -0.88248951
H    4.04146875  -2.13519411  -1.92190310
H    4.34653047  -2.76692220  -0.29014446
H    5.16220696  -1.27722840  -0.84365452
O    0.37914066   1.22046942   1.30855796
H   -0.25546985   0.97639449   1.99857260
C    0.43452094   2.63706230   1.25629516
H    1.15377979   2.89469661   0.47413375
H    0.78240098   3.08415768   2.20067989
H   -0.53359257   3.09104200   0.99278806
O   -2.39534175   0.00935147   0.57266404
H   -2.27695968  -0.08672334   1.52931371
C   -3.50698047  -0.78671731   0.19442121
H   -3.62615882  -0.66687483  -0.88581928
H   -4.44310089  -0.46738963   0.67865847
H   -3.35466475  -1.85698862   0.40441305
O   -1.37782666  -0.92316387  -2.67315936
H   -1.22342216  -1.87552532  -2.76028109
C   -2.13818545  -0.50592264  -3.79578933
H   -2.30301659   0.56892158  -3.68165867
H   -3.12176728  -0.99827358  -3.84996181
H   -1.61372286  -0.67145173  -4.74989438
O   -1.22799895   2.48059544  -1.74421937
H   -0.79331107   3.13334370  -2.31289275
C   -2.56185786   2.91469955  -1.53230472
H   -3.03688317   2.16819774  -0.88998766
H   -3.14139267   2.97968517  -2.46648544
H   -2.61594352   3.88875857  -1.02136334
Na  -0.54983762   0.37206377  -0.87335158
