46
Energy:   -672.62223799
O    2.66573036  -0.97079803   1.68236755
H    2.41428834  -0.87715394   0.76354246
H    3.50472141  -1.43082547   1.65589821
O    0.01879970  -1.55458433   2.14176958
H   -0.21199270  -1.42042754   3.06099135
H    0.97118765  -1.46186006   2.11745395
O    0.84281273  -3.11298504  -1.52413268
H    0.28747336  -3.47345868  -0.83283767
H    1.11924677  -3.87573604  -2.03209624
O   -0.79589142  -3.71704327   0.60315107
H   -0.50500636  -3.07794310   1.25366525
H   -1.06716321  -4.47703755   1.11798323
O    1.31470592  -0.58008346  -0.67755885
H    1.16500767  -1.44420133  -1.06112446
H    1.47636951  -0.00893166  -1.42847985
O    1.60100213   1.24584147  -2.80279312
H    1.73406541   1.08990905  -3.74957848
C    2.59258659   2.16555186  -2.37450953
H    2.42811601   2.32994697  -1.30614214
H    2.51892714   3.13859042  -2.88494816
H    3.61566604   1.78018246  -2.50708479
O   -2.18265487   1.20411464   2.07515905
H   -2.15744597   1.77283950   2.85895737
C   -3.54455803   1.00480057   1.73160780
H   -3.55461712   0.36225354   0.84700771
H   -4.06080268   1.94376054   1.47739734
H   -4.11422756   0.49942557   2.52712654
O   -1.92546062  -1.33937379  -0.44830232
H   -1.79836742  -2.27777585  -0.24416471
C   -2.33073171  -1.24496235  -1.80453814
H   -2.46941065  -0.18156078  -2.01768234
H   -3.28451416  -1.75955901  -2.00015676
H   -1.57468610  -1.63728225  -2.50257643
O   -0.63669800   1.86915429  -1.12733958
H    0.03320064   1.84095035  -1.82652741
C   -1.46721587   2.99293912  -1.37204655
H   -2.21595826   3.00963830  -0.57543424
H   -1.99577838   2.92920652  -2.33606790
H   -0.91451780   3.94495958  -1.34107523
O    1.11011500   1.42773470   1.81391998
H    1.89842367   0.90945285   2.03386687
C    1.42747202   2.79687503   2.00698231
H    0.52875636   3.36626356   1.75480765
H    2.24403629   3.14046027   1.35280396
H    1.69674948   3.02806834   3.04948729
Na  -0.58384409   0.28078154   0.60468563
