46
Energy:   -673.21646524
O    2.99843755  -1.50086323   2.09549822
H    3.70964527  -2.09762874   2.32849253
H    2.23306537  -2.06699245   1.99582388
O   -0.31725842  -0.16626528   1.76447960
H    0.45239383   0.28902386   2.10591636
H   -1.05289758   0.40255313   1.99144323
O   -0.01309856  -3.21607566  -0.81938014
H    0.19975012  -3.19672603   0.11365409
H    0.12412752  -4.12740584  -1.07798828
O    2.05463628   1.01958019   2.49917338
H    2.42290869   1.35086454   3.31823257
H    2.50925193   0.19061567   2.34959300
O    0.54485693  -2.76244199   1.82298336
H    0.14674305  -1.89229710   1.84717128
H    0.15924667  -3.22357260   2.56789619
O    1.05061045  -0.63269696  -1.29554880
H    0.88895948  -1.58776039  -1.28346293
C    2.44955378  -0.43450866  -1.42287795
H    2.61391227   0.64638356  -1.43485668
H    2.85478900  -0.85181538  -2.35798054
H    3.01740968  -0.85682914  -0.57909929
O    0.90811618   2.35302937   0.28764136
H    1.48436612   2.09706765   1.02306156
C    1.49920108   3.47233508  -0.35291086
H    0.83735503   3.74750339  -1.17857872
H    2.49234130   3.24698127  -0.77203554
H    1.59310346   4.34348679   0.31421309
O   -1.96021509  -1.15516607  -0.97654174
H   -1.48056404  -1.99674929  -0.96675235
C   -3.02370057  -1.27666811  -1.90754639
H   -3.55342107  -0.32017506  -1.90597758
H   -3.74174178  -2.06501798  -1.63241254
H   -2.67130018  -1.47005813  -2.93282274
O   -1.42767950   2.05620031  -2.30627390
H   -1.93796915   2.84988542  -2.52557207
C   -0.86366583   1.56086945  -3.51004701
H   -0.29238327   0.66711854  -3.24484758
H   -0.17513903   2.27805976  -3.98369904
H   -1.62662896   1.27138733  -4.24955001
O   -2.23622098   1.80773542   1.10105200
H   -2.30585677   2.74750886   1.32555147
C   -3.54210395   1.25562905   1.14985784
H   -3.44531741   0.19690305   0.89448200
H   -4.22773563   1.72053549   0.42422121
H   -3.99608749   1.32525007   2.15077202
Na  -0.66861717   0.77057386  -0.47752089
