46
Energy:   -672.56972786
O    1.62541577   0.93431331   1.21323791
H    1.63462239   0.54837401   2.08913628
H    2.16743635   0.34696914   0.68648145
O   -1.25875431   0.58445359   2.56428126
H   -1.83443126   0.97388141   3.22244071
H   -0.50128023   0.27493953   3.06093598
O    1.31385669  -2.61763844   1.67344430
H    0.50101705  -2.32062116   1.26441583
H    1.18977930  -3.55849838   1.79842120
O    1.11155936  -0.54500069   3.49437109
H    1.25414870  -1.35415880   3.00328730
H    1.59785184  -0.67000402   4.30931012
O   -0.92636149  -1.41494729   0.68223347
H   -1.62486762  -1.68148314   0.08450472
H   -1.38402042  -1.03130383   1.43029620
O    2.66036464  -1.14490124  -0.34755921
H    2.40377451  -1.85099038   0.26401491
C    3.99689594  -1.39204471  -0.75393090
H    4.26981971  -0.58756918  -1.44227452
H    4.10937654  -2.34957478  -1.28615419
H    4.70697558  -1.37679159   0.08769347
O   -0.56857862   3.43532176   0.20107563
H   -1.05705274   4.19966745   0.54106382
C    0.68838590   3.90009704  -0.26428221
H    1.22548262   3.02656207  -0.64368828
H    1.29597813   4.35421793   0.53408064
H    0.59520845   4.62709521  -1.08621223
O   -3.01902986  -1.99828571  -1.09570014
H   -3.77327277  -2.60563635  -1.06989124
C   -2.35666456  -2.18702610  -2.33593522
H   -1.50993793  -1.49537189  -2.34833157
H   -2.99871764  -1.95617495  -3.20037314
H   -1.96453260  -3.20891360  -2.45740862
O    0.59260244   0.31317266  -1.65998359
H    1.35955684  -0.24877171  -1.47444992
C    0.73999764   0.82181421  -2.97607333
H   -0.13217599   1.45245678  -3.16865658
H    0.76224595   0.02778523  -3.73883170
H    1.64238040   1.44201487  -3.09369063
O   -2.64860794   0.80886150  -0.68466468
H   -2.97177905  -0.07217153  -0.92500717
C   -3.39732785   1.75894482  -1.42580836
H   -3.02047238   2.74560701  -1.14303128
H   -4.47364741   1.72563377  -1.19514865
H   -3.27141718   1.64437670  -2.51383317
Na  -0.52391957   1.08151347   0.28176176
