46
Energy:   -671.88568947
O    3.18942724   0.38765769  -0.66122228
H    4.14026401   0.28307145  -0.62653796
H    2.90263085  -0.24250182  -1.32219026
O   -0.63031923  -0.65444569   3.06894193
H    0.30014020  -0.77854414   2.88165427
H   -0.71324924  -0.83754169   4.00480000
O    1.85518963  -1.39512133  -2.31716395
H    1.87611065  -1.52450965  -3.26534791
H    1.03797272  -0.92305580  -2.15734372
O    1.53135402  -3.22598314  -0.29281793
H    1.72233167  -2.74145286  -1.09593049
H    2.09081016  -4.00114684  -0.34141748
O    1.37207726  -0.82043139   1.08347620
H    2.05045562  -0.30515326   0.64698668
H    1.50458023  -1.71247039   0.76263165
O    1.39210604   2.50824744  -1.16180858
H    2.19824481   1.99051886  -1.01855816
C    1.77507184   3.75630898  -1.71697825
H    0.85523334   4.32671826  -1.87194789
H    2.28003380   3.65187049  -2.69005756
H    2.42823527   4.33721383  -1.04712422
O   -3.32784045  -0.00309504   0.50390787
H   -4.04385500  -0.61032036   0.26511120
C   -3.92015932   1.19216446   0.98665714
H   -3.09972312   1.86483336   1.25101713
H   -4.53220344   1.02967725   1.88764395
H   -4.54272576   1.69414325   0.22955368
O   -1.15538015  -2.52328676   0.21600181
H   -0.35026847  -2.99908677  -0.03664976
C   -1.95288655  -3.40651380   0.98828889
H   -2.85548764  -2.85465817   1.26442624
H   -1.45361480  -3.73001112   1.91503295
H   -2.25927303  -4.30333535   0.42738270
O   -0.27275942   0.24747657  -1.56312408
H    0.13593535   1.12569258  -1.57445981
C   -1.44405402   0.30747643  -2.36124861
H   -1.89180152  -0.68974189  -2.33752094
H   -1.23049219   0.56089890  -3.41146084
H   -2.18571714   1.02397523  -1.97479987
O   -0.40618805   2.05490290   0.96617999
H    0.18810533   2.48106199   0.33086348
C   -0.30242607   2.76023219   2.19267003
H   -0.97810887   2.26711995   2.89678528
H   -0.61059671   3.81383044   2.10469892
H    0.71368179   2.72959845   2.61618357
Na  -0.99002139  -0.22901120   0.76484421
