46
Energy:   -675.61793191
O    2.88306081   0.96612154   1.62232578
H    3.23885239   0.41461415   0.92555910
H    3.63799484   1.17424734   2.17277116
O    0.63896561  -0.68404332   1.65565375
H    1.38917635  -0.12519808   1.85840412
H    1.02230854  -1.53953831   1.46224134
O    3.37388824  -0.77007724  -0.45028952
H    4.05146355  -0.73405023  -1.12543810
H    2.56097413  -0.57222273  -0.91532296
O    0.24544177  -3.31397455  -1.35581856
H    0.86016199  -3.34537850  -0.62276693
H    0.32872452  -4.17012402  -1.77570416
O    2.03996211  -2.90790545   0.70090849
H    2.66483945  -2.28274509   0.33357392
H    2.57061264  -3.48003791   1.25526065
O    0.83254268  -0.55592072  -1.56727736
H    0.57351957  -1.47638160  -1.72246133
C    0.71878127   0.13691212  -2.79998770
H    1.01421111   1.17181061  -2.60713663
H   -0.31073051   0.14298638  -3.19094286
H    1.38376015  -0.26849822  -3.57859086
O   -2.10793693   0.93090497   1.99199189
H   -1.94108299   0.60652480   2.88941071
C   -3.24132801   1.78240637   2.04587879
H   -3.41520514   2.13884666   1.02695668
H   -3.08357523   2.65994502   2.69226668
H   -4.14982337   1.26018860   2.38455580
O   -1.83757521  -1.68472914  -0.37326212
H   -1.33110242  -2.43457300  -0.71915628
C   -2.90250661  -2.20697027   0.40501744
H   -3.46263867  -1.34910631   0.78686387
H   -2.55060178  -2.79578073   1.26655246
H   -3.59310739  -2.83100779  -0.18356141
O   -2.28157431   1.32510811  -1.49627617
H   -3.11581115   0.95202574  -1.81765088
C   -2.10420897   2.58560260  -2.12255803
H   -1.16012000   2.99173072  -1.74940770
H   -2.90484125   3.29998716  -1.87472749
H   -2.03350996   2.50951818  -3.21891114
O    0.67036867   2.23153545   0.39548473
H    1.53529572   2.02292935   0.77864000
C    0.21014982   3.43020386   0.99874787
H   -0.76490843   3.65056318   0.55581630
H    0.87478562   4.28650055   0.80434474
H    0.07660610   3.33418351   2.08765719
Na  -0.79282197   0.39156667   0.09704783
