46
Energy:   -672.74771778
O    3.30027250   0.11972425   1.33072440
H    2.72612092  -0.36782350   1.92138420
H    3.99478224   0.45785808   1.89601510
O    1.34809156  -1.28635954   2.69108814
H    1.25956032  -1.72539621   3.53704373
H    0.47065026  -0.95522711   2.49956811
O    1.13207810  -0.61874062  -2.56479757
H    1.19305193  -0.84166904  -3.49367698
H    1.99968422  -0.81769772  -2.21279255
O    1.07171886  -2.23050667   0.11113426
H    1.93180892  -2.14833681  -0.30084274
H    1.24444326  -2.13703559   1.04797005
O    3.39508584  -1.27751215  -1.06452698
H    4.25567319  -1.64867609  -1.25909982
H    3.53174649  -0.75656431  -0.27321853
O    1.07316577   1.32226975   0.09450575
H    1.89738213   1.05018948   0.52469524
C    1.40079892   2.28799294  -0.89168338
H    0.46120340   2.58353996  -1.36633844
H    2.06708935   1.88918314  -1.67257079
H    1.86639690   3.19025826  -0.46517061
O   -1.07870246  -0.35781008   1.66214797
H   -1.35060005   0.56584047   1.76875300
C   -2.22927150  -1.16844827   1.83988480
H   -1.90511849  -2.20536176   1.71651358
H   -3.01261491  -0.96451924   1.09318313
H   -2.67078500  -1.06591523   2.84354318
O   -1.71277659  -2.38389162  -1.37043072
H   -1.38717738  -3.29553367  -1.40672403
C   -3.04195402  -2.38150379  -1.86622849
H   -3.39327385  -1.34721055  -1.81830076
H   -3.72239417  -3.00152166  -1.26178132
H   -3.10570338  -2.71550264  -2.91368165
O   -2.01713697   1.08842966  -1.09264974
H   -2.11810060   1.73014624  -0.37401947
C   -2.67485094   1.61389968  -2.23450234
H   -2.55134543   0.87867021  -3.03429557
H   -2.23904479   2.56596201  -2.57571732
H   -3.75372449   1.76393801  -2.07233673
O   -1.30443400   2.44408178   1.30494128
H   -0.38271748   2.40260043   1.00974437
C   -1.47679005   3.66424759   2.00780866
H   -2.52019942   3.69469875   2.33316202
H   -1.28969718   4.54795895   1.37786595
H   -0.83812523   3.73362130   2.90227603
Na  -0.36200667  -0.55766436  -0.73367062
