46
Energy:   -675.70454722
O    2.52413768  -2.08958236   0.46773409
H    3.23377797  -2.46971490   0.98555814
H    2.89973178  -1.29198690   0.09490383
O    0.52599079  -0.61625982   1.70704427
H    1.02202854   0.19997025   1.76986831
H    1.16067646  -1.25903536   1.39042847
O    1.42033804  -0.53142085  -2.70555505
H    1.19430395  -1.41366355  -2.41095659
H    1.49317799  -0.60739574  -3.65695087
O    0.85763628  -2.95027917  -1.53242186
H    1.45532083  -2.79064260  -0.80199651
H    1.07061634  -3.83553130  -1.82771835
O    3.21590628   0.27627057  -0.77471078
H    4.04699079   0.50923352  -1.18854486
H    2.62608106   0.09463988  -1.50638581
O    1.87417780   1.78949487   1.25187770
H    2.41769577   1.46745666   0.51750526
C    2.70543229   2.57664951   2.08969470
H    2.07745319   2.93130875   2.91148803
H    3.11962229   3.45621694   1.57240839
H    3.54012252   2.00230291   2.52119850
O   -3.83310404   0.25554910   0.84556389
H   -4.56337170   0.49377651   1.43580124
C   -4.37011191   0.08479284  -0.45635724
H   -3.53425756  -0.18316905  -1.10829982
H   -4.82950087   1.00462618  -0.85087687
H   -5.11510378  -0.72469722  -0.50626013
O   -1.53828282  -2.18332598  -0.20593318
H   -0.81488424  -2.56896849  -0.72207039
C   -2.42345757  -3.23438030   0.14660659
H   -3.23215547  -2.78253010   0.72740285
H   -1.94291859  -4.00347772   0.77138557
H   -2.86840141  -3.72813539  -0.73146415
O   -0.72455858   0.71350452  -1.36054149
H   -0.02920904   0.36523965  -1.93814332
C   -1.05217118   2.01570847  -1.81821894
H   -1.83663655   2.39311142  -1.15665541
H   -1.44311718   2.01877309  -2.84774756
H   -0.19964810   2.71103479  -1.76818861
O   -0.94148958   2.10389984   1.60128371
H    0.00987916   2.27317494   1.53297028
C   -1.52102383   3.18525805   2.31356054
H   -2.59253213   2.97848019   2.38136958
H   -1.39150350   4.15080579   1.80002440
H   -1.12625961   3.28042643   3.33722138
Na  -1.51012527  -0.02290198   0.72995011
