46
Energy:   -676.70006231
O    2.04883388  -1.19577408   2.52475230
H    2.90441644  -1.23771602   2.95189538
H    2.10003049  -1.84246853   1.82090782
O   -1.15480942   1.43961286   2.92576048
H   -1.29662557   1.91805790   3.74258994
H   -1.07542178   0.52432781   3.19442892
O    1.75670988  -2.87847109   0.37547642
H    1.77715162  -3.82476180   0.23283042
H    0.83005291  -2.64651955   0.31434391
O    0.91205209   0.94122865   1.13293152
H    0.31118054   1.28872379   1.79204635
H    1.44254072   0.30013270   1.60601675
O   -0.60721668  -1.23094703   3.26695756
H   -0.79455349  -1.82789119   3.99138453
H    0.34459842  -1.26197238   3.17043141
O    1.70606534  -0.80538343  -1.53389538
H    1.99161629  -1.57615350  -1.02125766
C    2.86654366  -0.19362653  -2.07387439
H    2.52676498   0.67254042  -2.64814823
H    3.42020451  -0.85885184  -2.75483862
H    3.56015044   0.16301200  -1.29638103
O    0.30229004   2.39892436  -2.12149977
H    0.04927436   2.75002160  -2.98818141
C    1.11790599   3.36972942  -1.48522788
H    1.39386653   2.95816600  -0.51057587
H    0.59208562   4.32260485  -1.31694632
H    2.04457174   3.57793719  -2.04264823
O   -0.75126300  -1.66181757   0.45547694
H   -0.88831577  -1.48183890   1.39741510
C   -1.94664462  -2.23282737  -0.05201136
H   -1.77487297  -2.42925229  -1.11380087
H   -2.81122763  -1.55622474   0.03448970
H   -2.20211855  -3.18707886   0.43472728
O   -1.64489454  -0.13602971  -2.72644511
H   -2.59179725  -0.05307650  -2.91330679
C   -1.03010993  -0.71385457  -3.86692400
H    0.03585140  -0.80010408  -3.63938792
H   -1.13734269  -0.09140172  -4.76904977
H   -1.41368744  -1.72126549  -4.09224346
O   -2.06479608   1.36752582   0.25347496
H   -1.98462251   1.47886954   1.21243171
C   -2.77749041   2.48536355  -0.25153926
H   -2.85874998   2.34381648  -1.33267131
H   -2.25700803   3.43878121  -0.07023787
H   -3.79600170   2.56170901   0.16026585
Na  -0.21169080   0.42206502  -0.89858479
