46
Energy:   -676.48686695
O    2.93866778  -1.32913916   1.43298572
H    3.85514464  -1.60103370   1.48172362
H    2.44942120  -2.14787425   1.35210012
O   -0.85053088  -0.21172754   1.68653884
H   -0.08824751   0.03936519   2.20817890
H   -1.48499611   0.48925436   1.83590444
O    1.40500680  -3.52624692   1.02374358
H    0.46916747  -3.34594777   0.93469963
H    1.46129356  -4.48009813   1.08058998
O    1.52996165   0.54770922   2.84023740
H    1.83320927   0.58640196   3.74730719
H    2.09604051  -0.10327876   2.42550711
O   -1.24365797  -2.79291521   0.87625897
H   -1.12902883  -1.93275930   1.28026864
H   -1.88706459  -3.23456646   1.43051878
O    1.44534688  -0.38933865  -0.77705461
H    2.07757675  -0.68149182  -0.10373805
C    1.57098439  -1.25831275  -1.89134049
H    0.85196200  -0.91501219  -2.64009728
H    1.33266422  -2.30456591  -1.64368113
H    2.57488982  -1.22816129  -2.34305068
O    0.79015387   2.35086213   0.78589577
H    1.21727801   1.93769176   1.55093072
C    1.41160175   3.60824229   0.57298394
H    0.91853663   4.05989563  -0.29210637
H    2.48543879   3.51880184   0.34571372
H    1.29323016   4.29140211   1.42858792
O   -1.80311428  -1.00446363  -1.24616302
H   -1.71394846  -1.79531218  -0.69386662
C   -2.41556860  -1.39686439  -2.46413475
H   -2.50839532  -0.49424533  -3.07417347
H   -3.42373582  -1.81512394  -2.31772732
H   -1.81412874  -2.12840268  -3.02618382
O   -0.67598909   2.09573099  -2.50979630
H   -1.30878647   2.45127831  -3.15133886
C    0.62866955   2.37105730  -2.99414641
H    1.32886239   1.96391384  -2.25967422
H    0.82666653   3.44984564  -3.09309208
H    0.83270165   1.88997901  -3.96353380
O   -2.35456543   1.99681619   0.65032122
H   -2.36193741   2.93402217   0.89529849
C   -3.68443511   1.62706584   0.32280773
H   -3.65796492   0.56877003   0.04932187
H   -4.08381655   2.19130906  -0.53445616
H   -4.37896917   1.74359900   1.16945985
Na  -0.53709631   0.85775596  -0.51164851
