46
Energy:   -675.94733454
O    2.84555086  -1.59941551   0.69079998
H    3.68535002  -1.53913838   1.14614149
H    2.37054923  -0.81258794   0.95820918
O   -0.51473072  -0.94255978   3.11792359
H   -0.55723122  -1.24536005   4.02497241
H   -0.31445777  -1.72961911   2.61130716
O    2.23129480  -1.47656925  -1.97757225
H    2.74127628  -2.07786478  -2.52033779
H    2.59030557  -1.58499360  -1.09689792
O   -0.33898303  -1.25471833  -0.93673278
H    0.45185003  -1.44245429  -1.44227221
H   -0.31121835  -1.87526379  -0.20845789
O    1.15615359   0.45613341   1.40169673
H    0.62968979   0.09918732   2.11699891
H    1.16619275   1.40025445   1.55907053
O    1.35708682   1.20927847  -1.92877443
H    1.85153576   0.39373713  -2.09858563
C    1.47977017   2.03392300  -3.07657405
H    0.91711071   2.94798783  -2.86828336
H    1.05513894   1.57021335  -3.98069739
H    2.52309385   2.31597599  -3.28799573
O    0.38690571   3.08765805   0.61815851
H    0.98041855   3.73459125   0.20871595
C   -0.51308345   3.79771461   1.45384563
H   -1.17421461   3.05405335   1.90701084
H   -1.13647794   4.51384284   0.89588775
H   -0.00239455   4.33992032   2.26500971
O    0.36936030  -2.84296884   1.30700427
H    1.31548130  -2.70423920   1.15198037
C    0.11968922  -4.23707360   1.22533383
H   -0.95035621  -4.37549201   1.40233192
H    0.66892494  -4.81276354   1.98671320
H    0.35865437  -4.65455860   0.23468794
O   -1.99204742   2.05609405  -1.86557303
H   -2.52097914   2.85749305  -1.99369081
C   -2.34326644   1.14015894  -2.89038611
H   -1.73837220   0.24338256  -2.73107416
H   -2.12381466   1.52531701  -3.89848904
H   -3.40422896   0.84726502  -2.85365706
O   -2.02265101   0.54961671   1.27614150
H   -1.75710224   0.02981591   2.04926131
C   -3.39195445   0.27748527   1.02417651
H   -3.67459627   0.87094303   0.15044503
H   -4.04475163   0.57023641   1.86139210
H   -3.57909026  -0.78260613   0.79187554
Na  -0.44148511   1.03532943  -0.40441879
