46
Energy:   -672.40955605
O    1.92071172  -2.85224068   0.90498034
H    2.78835559  -3.15409211   1.17388863
H    2.09407798  -2.12064801   0.31257157
O    0.60585547  -0.75087527   2.18762613
H    0.10376039  -1.00042692   2.96342014
H    1.05968280  -1.55246719   1.92738969
O    0.63084463  -1.87470220  -2.98333611
H    0.44860306  -2.63295772  -2.42829699
H    0.91546741  -2.25009086  -3.81658582
O    0.20901488  -3.82717855  -1.03886945
H    0.82674459  -3.65026513  -0.32940240
H    0.14062842  -4.78157148  -1.06512366
O    1.82543228  -0.71778760  -0.76252443
H    2.10614184   0.19523581  -0.82434877
H    1.58482602  -0.95603686  -1.65783319
O    1.42822643   2.00744924  -0.08053191
H    1.40573494   2.58777989   0.69479625
C    1.42388516   2.83152770  -1.23526548
H    1.44946253   2.16187959  -2.09921132
H    2.30318175   3.49234866  -1.28939968
H    0.51745775   3.45232842  -1.31124671
O   -1.33779190   1.90344418   1.37821089
H   -0.76791949   2.57344895   1.78412013
C   -2.68347969   2.30946390   1.57006009
H   -3.31172085   1.54376566   1.10691383
H   -2.90950534   3.27369665   1.08845347
H   -2.95897856   2.37943311   2.63400653
O   -1.45121941  -1.80674757   0.02760357
H   -1.07966176  -2.62995382  -0.32268155
C   -2.85654010  -1.97532517   0.12346349
H   -3.25896651  -1.03904124   0.51958290
H   -3.14153434  -2.78724614   0.81073342
H   -3.32973319  -2.16432308  -0.85282818
O   -0.81555766   0.41162817  -2.09274534
H   -0.53539592  -0.32665833  -2.65387431
C   -1.90329015   1.05415514  -2.73813740
H   -2.20634504   1.88304814  -2.09270783
H   -2.77151154   0.38982873  -2.87095068
H   -1.62970225   1.46908949  -3.72086650
O    0.81615334   3.60280787   2.23348675
H    0.90147354   4.54540420   2.44001980
C    1.44314576   2.87497601   3.27736177
H    1.33780717   1.81543973   3.02882233
H    0.97028358   3.04438043   4.25740301
H    2.51757918   3.09953356   3.36649135
Na  -0.23318878   0.20914164   0.19357897
