46
Energy:   -673.36129121
O    3.52838704  -1.12776311   0.62470022
H    4.37120915  -1.37859070   1.00281165
H    2.88891461  -1.67692588   1.07827173
O   -0.57872774  -0.56825124   2.41285154
H   -1.03804332  -0.75754294   3.23103837
H    0.12714220  -1.21387687   2.37898365
O    0.16436918  -1.48147388  -0.57801413
H   -0.55460963  -1.72361359  -1.16168328
H    0.87976249  -1.23941085  -1.16610404
O    1.34621489  -2.44798957   1.66594931
H    0.87896641  -2.27129044   0.84943959
H    1.24065758  -3.38928353   1.80398983
O    2.43457121  -0.61528131  -1.88477354
H    3.00021855  -0.92947932  -2.59014900
H    2.94540829  -0.75467447  -1.08737347
O    1.82275697   1.07576328   1.03686726
H    2.54316073   0.42814008   1.04195497
C    2.40326792   2.36438463   0.91440981
H    1.57801258   3.08161680   0.91030468
H    2.96843212   2.48889117  -0.02253462
H    3.06767267   2.61326187   1.75667092
O   -2.55108601   0.13251649  -0.45757199
H   -2.58450500  -0.55700885  -1.13717574
C   -3.88719401   0.47428578  -0.12509203
H   -3.83108661   1.25195041   0.64144230
H   -4.45241205  -0.37457699   0.29052547
H   -4.44830013   0.87924146  -0.98179977
O   -2.03384131  -2.05121418  -2.24157100
H   -2.10502091  -2.13456816  -3.20407235
C   -2.73267023  -3.14143514  -1.66226954
H   -2.64239715  -3.03202052  -0.57812729
H   -2.30672678  -4.11726040  -1.94354266
H   -3.80402998  -3.14346607  -1.91714498
O    0.34958357   1.37307013  -1.71944931
H    1.17108867   0.93366208  -1.98491720
C    0.05606725   2.36174748  -2.69356381
H   -0.87199522   2.84682780  -2.37910820
H   -0.10403780   1.93615656  -3.69656734
H    0.83788724   3.13407852  -2.76455376
O   -1.27866194   2.81930381   1.23083419
H   -1.83831564   3.55566745   0.94277240
C   -0.95633971   3.03203627   2.59589355
H   -0.32575934   2.19368057   2.90413585
H   -1.84553634   3.04725382   3.24541270
H   -0.39074764   3.96273656   2.75923339
Na  -0.45813251   0.74672429   0.43615581
