46
Energy:   -671.92338098
O    2.47474163  -2.47248765  -0.17258696
H    3.39319126  -2.57576006  -0.42161894
H    2.27029315  -1.56115007  -0.38210184
O    1.93467793  -2.05388387   2.50078499
H    2.45038204  -2.64145334   3.05309219
H    2.15485843  -2.31122575   1.60550428
O    0.44869867  -0.94093981  -3.26564094
H    0.33343214  -1.79833249  -2.85597856
H    0.68470906  -1.13787255  -4.17214435
O    0.30318710  -3.20644913  -1.69533389
H    1.09295622  -3.11372860  -1.16251170
H    0.22809315  -4.14786111  -1.85133463
O    1.58475498  -0.00017257  -0.92550373
H    1.81061375   0.92999822  -0.92690783
H    1.29253660  -0.17752823  -1.81958720
O    1.04426837   2.64353678   0.05406176
H    1.56713666   3.00134886   0.78686633
C    0.87175063   3.68074761  -0.89828539
H    0.28086646   3.26066158  -1.71674053
H    1.82628274   4.03852112  -1.31499140
H    0.32460352   4.54533624  -0.49098469
O   -2.44582590   1.60455359   1.19119718
H   -3.30655309   1.22895325   1.42888683
C   -2.52139609   3.00832693   1.38157397
H   -1.54380815   3.41536113   1.10930540
H   -2.72719519   3.28515574   2.42741806
H   -3.27989636   3.48418239   0.74046847
O   -1.10124359  -1.53074832   0.12038948
H   -0.79209626  -2.21157523  -0.49550492
C   -1.51039260  -2.18231220   1.31227680
H   -1.85557271  -1.40099237   1.99482733
H   -0.68820917  -2.72591848   1.80348342
H   -2.34257442  -2.88480698   1.14871690
O   -1.19800926   0.96911906  -1.99407371
H   -0.82789246   0.34977290  -2.64048469
C   -2.50471425   1.31276135  -2.42646916
H   -2.90684856   2.01077699  -1.68718075
H   -3.17845891   0.44309484  -2.47672479
H   -2.51012241   1.81364192  -3.40721721
O    0.61561191   0.39587669   2.31331101
H    1.11429048  -0.41916041   2.47286503
C    0.23082965   0.91895005   3.57460822
H   -0.32971951   1.83654866   3.37640979
H    1.09324338   1.17611079   4.20934299
H   -0.42293423   0.23434997   4.13736292
Na  -0.46265884   0.73256202   0.24803647
