46
Energy:   -672.50849930
O    0.41710468  -1.28067475  -2.69162998
H    0.74207321  -0.38073098  -2.71862084
H    0.70354165  -1.66422261  -3.52053091
O   -0.37403485   1.60941814  -0.06365696
H    0.06583857   1.57911242  -0.91325968
H    0.23079693   2.08854386   0.50277830
O    1.01718399  -1.37332950   0.01893074
H    0.75765646  -2.19116755   0.44321629
H    0.84784713  -1.52139038  -0.91146426
O    1.65766046   2.38798411   1.67118681
H    2.13786870   3.17360709   1.93277508
H    2.29016204   1.87720354   1.16593756
O    0.11661656   0.42549577   2.85227999
H    0.70687722   1.12573186   2.57390323
H   -0.03732033   0.59657125   3.78140241
O    1.41833907   1.25976767  -2.23125472
H    2.18093891   1.22268267  -1.63502534
C    1.62556553   2.33889414  -3.12851557
H    0.75751789   2.36627757  -3.79276600
H    2.52618104   2.20916881  -3.74887062
H    1.69388262   3.31111928  -2.61578913
O    3.01742181   0.61037839   0.05026473
H    2.48383884  -0.19434880   0.12853754
C    4.38271184   0.22757654   0.09475829
H    4.96951306   1.14581126   0.00534619
H    4.66449095  -0.43976084  -0.73472268
H    4.65652143  -0.26159735   1.04265836
O   -0.76726931  -2.64740445   1.88208769
H   -0.50686885  -2.89328688   2.78217475
C   -1.66807291  -3.63614357   1.40934927
H   -1.95125220  -3.34371000   0.39456984
H   -2.58569840  -3.69978804   2.01489874
H   -1.21312684  -4.63789967   1.36153589
O   -1.90960821  -1.12000007  -1.11866933
H   -1.30327367  -1.21314764  -1.86840611
C   -3.23036283  -1.08344317  -1.63520063
H   -3.90031247  -0.97825804  -0.77753591
H   -3.50333604  -2.00636103  -2.17044411
H   -3.40031476  -0.22834358  -2.30802926
O   -3.14186078   0.02374570   1.94789665
H   -3.73467513  -0.27421447   2.65373952
C   -3.65772101   1.24322898   1.43869873
H   -2.97810560   1.56468375   0.64480017
H   -3.69559414   2.03925673   2.19875320
H   -4.66281974   1.13077977   1.00291316
Na  -1.03645065  -0.40334383   0.96037803
