46
Energy:   -672.49246612
O    2.43462931  -1.31081936   1.63524487
H    3.14966486  -1.54739055   2.22599870
H    2.19761634  -2.13205535   1.20439902
O   -0.27283131  -0.78830182   1.75192252
H    0.66806248  -0.86034239   1.91242450
H   -0.49846083   0.09608813   2.04032775
O    1.34819450  -3.56163678   0.38966629
H    1.60066188  -4.47879882   0.28333730
H    0.41687335  -3.59290979   0.60851503
O    1.82141974   1.01277012   0.17794582
H    2.27110674   0.30057013   0.63268159
H    1.90533833   1.76358487   0.76571000
O   -1.30666181  -3.19729175   1.02561845
H   -1.04388483  -2.37304861   1.43525651
H   -1.81849292  -3.64696358   1.69796955
O    0.82220685  -1.52647982  -1.48669744
H    1.04383062  -2.35703954  -1.04006926
C    1.83922694  -1.26617699  -2.44087056
H    1.57393158  -0.32738918  -2.93461244
H    1.90951898  -2.04939393  -3.21184889
H    2.83199611  -1.14129732  -1.98087951
O    1.54443927   3.28452234   1.87150103
H    1.91869956   3.55289799   2.72374924
C    1.80044386   4.32528584   0.94208898
H    1.37233222   4.00662373  -0.01219613
H    2.87633141   4.50496228   0.79056438
H    1.32610797   5.27708831   1.22819187
O   -2.28377548  -1.04043021  -0.60877133
H   -2.17873452  -1.93433429  -0.25054630
C   -3.62269006  -0.91202710  -1.05971940
H   -3.72363757   0.10042540  -1.46001271
H   -4.35797227  -1.03344080  -0.24891972
H   -3.87083229  -1.62310539  -1.86319338
O   -0.75888586   1.68368556  -2.35227794
H   -0.70654043   2.60100882  -2.65920021
C   -1.19973277   0.88966182  -3.44210091
H   -1.25312044  -0.14029907  -3.07903684
H   -0.50422597   0.91516332  -4.29556286
H   -2.20041540   1.17755750  -3.80060848
O   -0.88893830   1.91943204   1.20812468
H   -0.22973079   2.57534672   1.47950020
C   -2.16816211   2.52187148   1.32295910
H   -2.89866550   1.76948526   1.01349992
H   -2.28480777   3.40020948   0.66897633
H   -2.40507715   2.82338813   2.35530416
Na  -0.32338656   0.28456266  -0.50905125
