46
Energy:   -675.41604606
O    1.86464427  -1.68572402   2.16966781
H    2.68308515  -1.87769969   2.62741415
H    2.00739421  -2.00505597   1.27866757
O   -1.40215995   0.74552849   2.93477583
H   -1.66810003   0.92266170   3.83706822
H   -1.35908397  -0.20914865   2.88029781
O    1.91624016  -2.46182584  -0.46683981
H    2.26692060  -3.24163635  -0.89713115
H    0.96799050  -2.59239798  -0.46915296
O    1.02036499   0.89470964   1.61340818
H    0.26399631   0.94737737   2.19767215
H    1.44298424   0.06683129   1.84197385
O   -0.82996098  -1.96425613   2.70143875
H   -0.98804342  -2.60062055   3.39877806
H    0.12351268  -1.91592527   2.63227260
O    2.18930033   0.24941738  -1.28697808
H    2.22234564  -0.70598722  -1.13034688
C    3.47515167   0.65852751  -1.72486962
H    3.42015248   1.73693511  -1.89661750
H    3.77594942   0.17743093  -2.66871502
H    4.25923856   0.47191177  -0.97442998
O    0.61272849   3.29632025  -2.14250653
H    0.70376981   4.25238755  -2.26927434
C    0.59998002   2.69128453  -3.42558994
H    0.49686043   1.61479257  -3.26429328
H    1.53151921   2.86469933  -3.98678453
H   -0.24650378   3.02625267  -4.04529863
O   -0.82932427  -2.60114887  -0.05423742
H   -1.01124020  -2.47265095   0.88853411
C   -1.72331573  -3.59275136  -0.53385973
H   -1.50474690  -3.72504117  -1.59697416
H   -2.77937958  -3.29595470  -0.43681225
H   -1.58818968  -4.56470418  -0.03403377
O   -0.99456262  -0.07619877  -1.33777230
H   -1.03779177  -0.99806867  -1.04330600
C   -2.25830357   0.25961481  -1.88797393
H   -2.19205109   1.30097273  -2.21457690
H   -3.07556223   0.18344708  -1.15376409
H   -2.51854964  -0.35663032  -2.76278320
O   -1.43247518   2.48399297   0.65404597
H   -1.67481153   2.01770625   1.46784759
C   -2.28396298   3.61237624   0.53465797
H   -1.99742138   4.12605031  -0.38703506
H   -2.17039712   4.32107126   1.36990134
H   -3.34710947   3.33634210   0.45527265
Na   0.42267504   1.61239292  -0.52634421
