46
Energy:   -671.64266986
O    1.80071008  -0.56142780   1.03221626
H    2.04614232  -1.48335588   1.10995613
H    2.56983115  -0.13982978   0.64888907
O   -1.23984519  -1.71376152   1.03398030
H   -2.12026720  -1.51209540   0.71708959
H   -1.08738050  -1.08239280   1.73708761
O   -1.61788767  -1.59493620  -2.09219937
H   -1.99787646  -2.05392863  -2.84130971
H   -2.37284238  -1.26822907  -1.60277349
O    0.98848171  -3.20405609   0.22207015
H    0.18150081  -3.18827543   0.73662301
H    1.17561770  -4.13450392   0.09765630
O   -3.47409396  -0.65952111  -0.22999776
H   -3.28871866   0.18425598   0.18220131
H   -4.41701510  -0.77966020  -0.11731157
O    3.94526916   0.60618992  -0.35532472
H    4.90429820   0.61638988  -0.21900698
C    3.51626198   1.95101259  -0.49652882
H    2.43401307   1.92113026  -0.64926894
H    3.96991346   2.45308323  -1.36538021
H    3.71787237   2.55803593   0.39993828
O   -0.41034174   1.13495916  -0.77399305
H   -1.11087743   1.49963678  -0.21302669
C   -0.47578840   1.79493663  -2.02805854
H    0.31991253   1.37219716  -2.64744257
H   -0.30536821   2.87990905  -1.94700831
H   -1.43425926   1.63141638  -2.54513887
O   -2.47244435   1.54217265   1.14733462
H   -1.85153376   1.31192847   1.85435720
C   -3.14479711   2.72975438   1.53479453
H   -3.84011232   2.97481465   0.72734954
H   -2.46028229   3.58234142   1.66637010
H   -3.72736325   2.60569834   2.46107965
O    2.15167893  -0.76692162  -2.12417401
H    2.90290752  -0.29950574  -1.72971074
C    2.53196103  -1.16738474  -3.43090604
H    1.67445876  -1.69225055  -3.86066287
H    3.38998964  -1.85772095  -3.43129978
H    2.77228591  -0.31398888  -4.08415699
O   -0.34927646   0.40394297   2.63193661
H    0.53361985   0.26976572   2.25655167
C   -0.20315378   0.54496580   4.03596456
H   -1.20685481   0.69527985   4.44275091
H    0.41181776   1.41511336   4.31422801
H    0.22704552  -0.35070097   4.51081922
Na   0.27034717  -1.12198262  -0.77684712
