46
Energy:   -674.76065876
O    3.07764404  -1.51167684   1.34123421
H    3.98040596  -1.82901117   1.36472204
H    2.54834044  -2.30166645   1.23175382
O   -0.66040373  -0.23874155   1.71890959
H    0.12705249  -0.04668967   2.22808600
H   -1.25676597   0.48308261   1.91779099
O    1.43328370  -3.61197423   0.85661675
H    0.50451422  -3.38791994   0.79814644
H    1.44941417  -4.56902427   0.86180069
O    1.77290384   0.36193436   2.85324674
H    2.09922275   0.35364106   3.75306841
H    2.30450273  -0.29184555   2.39914730
O   -1.18526057  -2.76236399   0.81153376
H   -1.02206329  -1.92770757   1.25079126
H   -1.82853867  -3.20370771   1.36618758
O    1.58597812  -0.41123380  -0.79462785
H    2.22132800  -0.76477333  -0.15450004
C    1.65851604  -1.21454304  -1.96166096
H    0.93667672  -0.80248911  -2.67204449
H    1.38911375  -2.26536697  -1.77200648
H    2.65340566  -1.19055938  -2.43325058
O    1.04625067   2.28466848   0.89826517
H    1.47607543   1.84520350   1.64696036
C    1.93479323   3.27947325   0.41516127
H    1.43502757   3.76453473  -0.42771170
H    2.88621616   2.85994357   0.05244018
H    2.15982006   4.05068799   1.16839966
O   -1.72503999  -0.86286543  -1.21671915
H   -1.65683694  -1.67489421  -0.69290538
C   -2.34146855  -1.19673429  -2.45004036
H   -2.41045733  -0.27088158  -3.02755444
H   -3.35981121  -1.59597336  -2.32211961
H   -1.75508125  -1.92169655  -3.03600707
O   -0.21815078   2.13051462  -2.44423898
H    0.48110473   2.37520979  -3.06840985
C   -1.42681877   2.71656609  -2.90052743
H   -2.20372021   2.43096213  -2.18614677
H   -1.72713091   2.35201353  -3.89535977
H   -1.38044493   3.81637485  -2.93289218
O   -2.09382376   2.07630405   0.75749512
H   -2.03829064   2.98896872   1.07746786
C   -3.46720571   1.75959615   0.59608911
H   -3.51151362   0.72842213   0.23525376
H   -3.96759558   2.40239453  -0.14498953
H   -4.03030683   1.81516258   1.54086783
Na  -0.33683693   0.89450408  -0.44636534
