46
Energy:   -674.36648402
O    3.23600216  -0.65168651   1.16260948
H    3.94853532  -1.01797556   1.68640398
H    3.16779982  -1.23647162   0.40788657
O    0.50498588  -1.10536899   1.55732186
H    0.50548761  -2.03742720   1.33937899
H    1.43148654  -0.87096547   1.61101889
O    2.52163691  -2.12400301  -1.07367293
H    3.00151045  -2.33487592  -1.87460104
H    1.92775846  -1.41791488  -1.32858426
O    0.63368366  -3.59029069   0.29511223
H    1.35090284  -3.24097896  -0.23385829
H    0.90239754  -4.48522899   0.50274205
O    0.86386847   0.03666564  -1.44542096
H    0.24503761   0.44307746  -2.05214136
H    1.42033080   0.75782789  -1.15130104
O    2.55370049   1.78700045  -0.07471771
H    2.99872072   1.09888696   0.44188668
C    3.49390725   2.82232772  -0.31271450
H    2.97619780   3.58894774  -0.89560031
H    4.36430228   2.48082130  -0.89457633
H    3.85809356   3.28787835   0.61648316
O   -2.83514964   0.15982804   1.64707954
H   -2.95963184  -0.15844427   2.55351773
C   -4.02302285   0.83182906   1.25990303
H   -3.86561568   1.18378342   0.23675284
H   -4.24197926   1.70666218   1.89196508
H   -4.90480905   0.17211282   1.26212061
O   -1.61959040  -2.13503497  -0.58798033
H   -0.96363951  -2.82717529  -0.41741220
C   -2.90447220  -2.73152652  -0.51175460
H   -3.63120368  -1.93812060  -0.70631465
H   -3.11868057  -3.15443377   0.48224820
H   -3.05186072  -3.52160290  -1.26463791
O   -1.86931476   0.77195972  -1.98748930
H   -2.41024181   0.23639518  -2.58664858
C   -2.14587998   2.13617023  -2.26130521
H   -1.52839256   2.72523437  -1.57778643
H   -3.19996478   2.40048577  -2.08292401
H   -1.88491019   2.42448377  -3.29161943
O   -0.13379525   2.15352134   0.69669837
H    0.81199089   2.29606154   0.54309454
C   -0.52218216   2.97738311   1.78432937
H   -1.58995905   2.80444379   1.94379629
H   -0.37696139   4.04949344   1.57873827
H    0.00714918   2.72764121   2.71718233
Na  -1.00918903   0.02645456   0.16574096
