46
Energy:   -672.29773269
O    3.25622599   1.81096059  -0.12994734
H    4.03914977   2.19877179  -0.52092646
H    3.05791032   1.05787494  -0.68651246
O   -1.74840472  -0.98120324   1.99539139
H   -0.93212096  -0.92151608   2.49172809
H   -2.43700717  -0.90233143   2.65557148
O    2.56001243  -0.45625054  -1.53153100
H    2.10504805  -0.91756492  -0.82695431
H    3.24499257  -1.06295940  -1.81249078
O    0.93655168  -1.62669607   0.34439606
H    1.01024792  -1.47222992   1.28617147
H    0.46830468  -2.45853626   0.27355479
O    0.82750015  -0.84128704   2.98570561
H    1.17848648   0.03614072   2.83351830
H    1.27873993  -1.14712596   3.77252011
O   -0.13615606  -0.40730206  -2.38938708
H    0.82882337  -0.33493152  -2.34466021
C   -0.53920786   0.00627624  -3.68516330
H   -1.62856129  -0.08146438  -3.71826731
H   -0.12127928  -0.62743751  -4.48298528
H   -0.27443556   1.05367370  -3.89877866
O    1.75984443   1.62053431   2.20152834
H    2.40183262   1.74306955   1.48650418
C    1.90466986   2.70792363   3.10105257
H    1.17431467   2.55409352   3.90005369
H    1.69492389   3.68074990   2.62946692
H    2.90590583   2.75172708   3.55754476
O   -1.41367316  -3.08079218  -0.36958239
H   -2.02443577  -3.61072227   0.16386527
C   -1.28241857  -3.71552904  -1.63149171
H   -0.59124996  -3.10564200  -2.21954694
H   -2.23610476  -3.77466200  -2.17899812
H   -0.86198731  -4.73051990  -1.55527862
O   -3.40152218  -0.18332390  -1.07397862
H   -4.06186852  -0.46388408  -1.72486415
C   -3.94309770   0.91459300  -0.35717445
H   -3.18651210   1.21796130   0.37154436
H   -4.86074081   0.65258219   0.19242431
H   -4.16024513   1.77913771  -1.00384807
O   -0.40982437   1.46399534   0.35996631
H    0.24586093   1.64656996   1.04928956
C   -0.34957669   2.52252748  -0.58259069
H   -1.09432074   2.30097110  -1.35184635
H    0.63386674   2.60068083  -1.07198667
H   -0.59624679   3.50039301  -0.14019923
Na  -1.22691421  -0.64353593  -0.30053120
