46
Energy:   -672.52764777
O    2.50516969  -2.25341079  -0.20683995
H    2.30692217  -2.15653533   0.72458096
H    2.92102494  -3.11281300  -0.27557203
O    1.59689962  -1.70830179   2.33869055
H    1.85663763  -1.86634513   3.24631950
H    0.70396197  -2.04840476   2.28190863
O    3.47877477   0.26636023  -0.75737665
H    3.30603265  -0.66876932  -0.64817614
H    4.43328175   0.33709520  -0.74534224
O   -0.09337944  -1.54954929  -0.90423423
H   -0.27142850  -1.64792207  -1.83957010
H    0.82533651  -1.80009223  -0.80717194
O    1.32115551   0.70056440   0.94855327
H    1.41386970  -0.01780788   1.57431456
H    2.15307220   0.71550469   0.47534798
O    1.19997203   1.18990087  -2.13929358
H    2.09866599   0.92962775  -1.88823513
C    1.29846083   2.34966488  -2.95033067
H    0.27748473   2.62917395  -3.22413293
H    1.86449433   2.17282168  -3.87829075
H    1.75525846   3.20082970  -2.42152853
O   -1.16097246   3.12123752  -0.43427058
H   -1.85639931   3.70476214  -0.77235902
C   -0.31017021   3.89947563   0.39217648
H    0.46725966   3.22682784   0.76451092
H   -0.83572612   4.32742899   1.26017662
H    0.18104821   4.71905263  -0.15534096
O   -0.94636408  -2.51334952   1.61167767
H   -0.82804151  -2.41627435   0.65512163
C   -1.80079535  -3.62474942   1.82909722
H   -1.92340807  -3.71975675   2.91142107
H   -1.37697253  -4.56763800   1.44947549
H   -2.79840838  -3.48781334   1.38323391
O   -2.00151438   0.47834711  -2.38251066
H   -1.96615890   0.68537154  -3.32819251
C   -3.34863562   0.17347367  -2.05870465
H   -3.37040802  -0.05726011  -0.99016682
H   -3.72931062  -0.70359150  -2.60516650
H   -4.03116159   1.01862042  -2.23943266
O   -1.90086602   0.15120755   1.26656613
H   -1.76929847  -0.72322892   1.66213422
C   -2.43651775   1.00071115   2.26854150
H   -2.57849805   1.98125844   1.80609820
H   -1.75948661   1.12359058   3.12837103
H   -3.41308360   0.65472028   2.64188692
Na  -0.52645064   0.83706940  -0.53385086
