46
Energy:   -673.43157362
O   -1.31383310   0.73898682  -2.87699480
H   -1.51887145   0.85326004  -3.80496719
H   -0.94966200  -0.14430885  -2.81868523
O   -0.34978859  -1.77462518  -2.30529726
H   -0.90244976  -2.10476530  -1.59691531
H   -0.17438839  -2.54175401  -2.85025594
O   -1.90360615  -2.36956996  -0.09697990
H   -2.64328546  -2.97526765  -0.04968627
H   -2.30611666  -1.50228185  -0.14201845
O    1.55612699  -0.91122938  -0.48676128
H    1.37170768  -1.56981523   0.18292973
H    1.01753475  -1.17148379  -1.23403492
O    1.88943135  -0.23590643   2.56983003
H    1.36640347  -1.02681913   2.43894542
H    2.50798661  -0.46907368   3.26211196
O   -0.84410109   0.99877184   1.36507991
H   -1.61146259   0.81422837   0.80336529
C   -1.30532228   1.10548899   2.70239822
H   -0.42841404   1.31341433   3.32149772
H   -1.76856874   0.17566771   3.06792856
H   -2.02345446   1.92895648   2.84011094
O    3.42071684   2.29391754   0.75170688
H    3.99270412   2.85359520   1.29761415
C    4.17745498   1.87077097  -0.37115916
H    3.51818987   1.24153614  -0.97524380
H    5.05747334   1.27157829  -0.08953325
H    4.51530834   2.71124395  -0.99744791
O    0.57800503   2.10322412  -1.27704729
H   -0.05799365   1.74593750  -1.91444451
C    0.83458231   3.45181200  -1.63483578
H    1.55267686   3.83881928  -0.90678992
H   -0.06758071   4.08197123  -1.59266296
H    1.27938596   3.54846787  -2.63762424
O   -2.79043205   0.21841579  -0.54155977
H   -2.45493886   0.52288231  -1.39781191
C   -4.07232781   0.79564815  -0.35161285
H   -4.43551684   0.44234923   0.61728281
H   -4.79648626   0.48582717  -1.12127696
H   -4.04336603   1.89619974  -0.32469158
O    0.40127900  -2.39890253   1.59672547
H   -0.47282924  -2.45373925   1.18277982
C    0.71130519  -3.68088002   2.11917284
H    1.69882504  -3.60120960   2.58171188
H    0.76110066  -4.45711584   1.33958596
H   -0.00188137  -4.00921576   2.89140202
Na   1.40461133   1.10147484   0.68854646
