46
Energy:   -672.37179386
O    2.62571423  -2.68840075   0.78944900
H    3.56356806  -2.79904922   0.63318338
H    2.41259756  -1.84744546   0.38496497
O    0.12687521  -0.88714168   2.61127033
H    0.16694534  -1.83954958   2.52440592
H    0.72426569  -0.68652586   3.33176305
O    0.32855488  -1.44384139  -2.57619254
H   -0.16957668  -1.87947250  -1.88458403
H    0.46415635  -2.12208147  -3.23788316
O    0.30098136  -3.53413650   1.87395288
H    1.17781982  -3.37874623   1.52289730
H    0.35826519  -4.39388087   2.29083419
O    1.69676551  -0.38655769  -0.41279941
H    1.43278730  -0.68944927  -1.28159400
H    2.18632832   0.41920255  -0.57805843
O    2.99809523   2.08541316  -0.69527311
H    3.92818950   2.32339005  -0.56598691
C    2.56636328   2.67993966  -1.90881320
H    1.51698013   2.40184271  -2.03897571
H    3.12711330   2.31572664  -2.78384784
H    2.62830803   3.77928604  -1.88937799
O   -2.51271239   0.62381775   1.65941579
H   -2.70910497   0.51591262   2.60186457
C   -3.65123175   1.20754076   1.04657413
H   -3.41290884   1.32201979  -0.01436034
H   -3.88903198   2.20328985   1.45242156
H   -4.54927057   0.57540203   1.12845340
O   -0.97512719  -2.10330616  -0.18464628
H   -0.65031033  -2.75170161   0.45761583
C   -2.37609490  -2.28727368  -0.31105510
H   -2.72554967  -1.54911607  -1.03802822
H   -2.91441110  -2.11665474   0.63439832
H   -2.64142407  -3.28807111  -0.68626472
O   -1.00277472   0.85372078  -1.62559760
H   -0.68829818   0.20690126  -2.27456007
C   -1.58795623   1.93062190  -2.34000668
H   -1.93678604   2.64982481  -1.59398380
H   -2.45390024   1.61901563  -2.94483710
H   -0.87019868   2.44352999  -2.99919310
O    0.63646599   2.24289191   0.94953799
H    1.47692798   2.42297393   0.50275238
C    0.19744010   3.45343012   1.54484235
H   -0.75014926   3.23263222   2.04364883
H    0.01679871   4.24967939   0.80583415
H    0.90082855   3.83473848   2.30156287
Na  -0.44763498   0.19086772   0.59938154
