46
Energy:   -675.78943798
O    3.02542071  -1.62051981   0.66788739
H    3.88159393  -1.99827847   0.46664709
H    2.46985630  -2.37529084   0.86256847
O   -0.35611389   0.00374898   1.88782872
H    0.54950462   0.21560829   2.11410861
H   -0.86124355   0.76012814   2.18610115
O    1.26242443  -3.63883960   1.07207912
H    1.24632606  -4.57883209   1.25204249
H    0.36614099  -3.34716768   1.23891836
O    2.32387266   0.57311432   2.14592427
H    2.91164711   0.67804568   2.89408365
H    2.66374161  -0.19019154   1.67892844
O   -1.21773503  -2.57743107   1.61500045
H   -0.89913274  -1.70113241   1.83139147
H   -1.68636002  -2.86286930   2.39931384
O    0.98051485  -0.76214442  -1.08817736
H    1.76696897  -1.05342566  -0.60333880
C    0.67471497  -1.75843111  -2.05069128
H   -0.21341232  -1.41438646  -2.58767212
H    0.44149034  -2.73319571  -1.59438263
H    1.48286663  -1.90283778  -2.78473143
O    1.10278930   2.19540548   0.17346498
H    1.72195841   1.82192357   0.81810763
C    1.71137262   3.34561609  -0.39149137
H    1.00059333   3.75369903  -1.11519457
H    2.64636013   3.11334384  -0.92499421
H    1.92272567   4.12569399   0.35656323
O   -2.30004488  -0.98805751  -0.46455155
H   -2.10047170  -1.71014956   0.14959573
C   -3.25737002  -1.46699736  -1.39550750
H   -3.47076669  -0.64120944  -2.07962837
H   -4.20281458  -1.76689880  -0.91699830
H   -2.88455424  -2.31547599  -1.99037702
O   -1.30742646   1.75871544  -2.47903142
H   -2.07149507   2.11165743  -2.95867128
C   -0.19003531   1.81059220  -3.35154480
H    0.66164415   1.40944695  -2.79547845
H    0.05874413   2.83708299  -3.66331843
H   -0.32739214   1.19657469  -4.25536609
O   -2.30310586   1.96072990   0.92714033
H   -3.25033188   1.76214744   0.96898689
C   -2.14842211   3.35980621   1.10375346
H   -1.07582970   3.56606440   1.05387084
H   -2.51803883   3.70852324   2.08076792
H   -2.64574691   3.94556176   0.31487083
Na  -0.69579478   0.76312646  -0.43231720
