46
Energy:   -672.39944567
O    2.93190828  -2.23347069  -0.56557482
H    3.73213619  -2.72267909  -0.75673516
H    2.32487673  -2.89020430  -0.22433368
O    0.67076841  -1.52698205   2.07110898
H    0.80089120  -2.38803461   1.67375725
H    1.36748220  -1.45603108   2.72363309
O   -0.15682547  -0.52238816  -3.03471308
H    0.25441635  -0.64588217  -3.89020197
H    0.56685675  -0.29413235  -2.45126199
O    0.86083959  -3.75072343   0.45427672
H    0.61667748  -4.67546295   0.49266336
H    0.15506538  -3.33657784  -0.04230968
O    1.45960280   0.02272317  -0.86927263
H    1.99593111   0.78595756  -0.65466357
H    2.04854775  -0.72352735  -0.75753248
O    2.87178774   2.32488056  -0.06647996
H    3.80874030   2.42524830   0.15817419
C    2.53975986   3.34580760  -0.99384140
H    1.48123800   3.21803303  -1.23610227
H    3.11534009   3.27359276  -1.92993421
H    2.67550050   4.35712307  -0.57960377
O   -2.31235284  -0.27089986   2.09214601
H   -2.34810597  -0.65845394   2.97924625
C   -3.56925759   0.33508410   1.83620137
H   -3.51158029   0.76654259   0.83320481
H   -3.80229775   1.14610074   2.54381823
H   -4.40029911  -0.38738609   1.84977097
O   -0.95666722  -2.06290077  -0.80586660
H   -0.80436783  -1.73467041  -1.70447275
C   -2.32834923  -2.40930660  -0.70086556
H   -2.48246882  -2.77699206   0.31724040
H   -2.61985736  -3.20848366  -1.40023411
H   -2.99747251  -1.54887090  -0.85803358
O   -1.57666682   1.05434161  -1.15503183
H   -1.34172656   0.72333263  -2.03461094
C   -1.98230096   2.40620466  -1.29807386
H   -2.24333548   2.76335341  -0.29817839
H   -2.86808928   2.51845382  -1.94271060
H   -1.18145533   3.05100092  -1.69261332
O    0.47682612   1.91015347   1.45021855
H    1.31705158   2.23675290   1.09556763
C    0.05764397   2.81121521   2.46259587
H   -0.88994719   2.42839592   2.85119026
H   -0.11648378   3.82921363   2.08031840
H    0.77047833   2.87164747   3.29984879
Na  -0.47505862  -0.07264341   0.62227120
