46
Energy:   -676.62683395
O    1.55907158  -0.94557709   0.65376718
H    2.25420730  -0.87961681  -0.00095980
H    1.32355791  -1.87332233   0.66110987
O   -1.55646349  -0.04015607   0.42208174
H   -1.63309368  -0.79447716   1.00634141
H   -1.47687149   0.71133802   1.00957949
O    0.44074901  -3.46923357   0.77311568
H   -0.23992511  -3.14134604   1.36082680
H    0.64058696  -4.34545840   1.10254957
O    0.70769822  -0.34392136   3.20617390
H    1.40799827  -0.44041855   3.85154200
H    1.14041222  -0.47035759   2.36177807
O   -1.29345361  -2.04166204   2.35905107
H   -0.66379099  -1.48685991   2.81943291
H   -1.95720877  -2.24838751   3.01702183
O    2.45367356  -0.35623560  -1.97586158
H    2.71101094  -0.93691600  -2.70730605
C    3.33620187   0.75447411  -1.97708930
H    3.03221786   1.39817696  -1.14719439
H    3.27692313   1.34368013  -2.90558250
H    4.38614428   0.46353827  -1.81660689
O    0.53254849   2.19802277  -0.29628627
H    0.20889145   2.34631326   0.60464620
C    0.56297457   3.45413239  -0.95491868
H    0.92977332   3.26878390  -1.96812636
H    1.24419129   4.17155272  -0.47115305
H   -0.43278489   3.91815335  -1.03189255
O   -0.19689807  -2.24236194  -1.68234269
H   -0.04823208  -2.90813756  -0.99454583
C   -1.24731919  -2.70940814  -2.51361706
H   -1.40169037  -1.94767734  -3.28265602
H   -2.19492794  -2.84072948  -1.96811757
H   -1.00175869  -3.65769801  -3.01683043
O   -0.70500183   0.85023324  -3.19868986
H   -0.51601253   0.94059499  -4.14449168
C   -2.02571347   1.31833070  -2.97701598
H   -2.22215445   1.20943544  -1.90695151
H   -2.78160784   0.73345656  -3.52412043
H   -2.15034611   2.38028359  -3.24064469
O   -0.67827076   1.91890641   2.24050029
H   -0.20026187   1.30356247   2.81607184
C   -1.29187254   2.89406433   3.06820414
H   -1.82585504   3.57894107   2.40390621
H   -0.56161527   3.48041269   3.64759800
H   -2.02204537   2.45892390   3.76840253
Na   0.18040284   0.03005207  -1.16710550
