46
Energy:   -672.90758280
O    0.40454495  -1.82986118   2.85518398
H   -0.11912021  -1.05765248   3.06896046
H    0.75882694  -2.11980395   3.69580833
O   -1.58980742  -0.42373598   0.44539410
H   -1.54270237  -0.01677380   1.31049222
H   -1.68899969  -1.35867333   0.62507412
O    1.67620180  -0.32430431   0.89407218
H    1.31231525  -0.93925118   1.53098566
H    2.41745090  -0.79017195   0.50709807
O    1.33409315   2.09615392   2.21562812
H    2.11673060   2.48111743   2.60998021
H    1.64553644   1.29219156   1.79984037
O   -1.23414697  -3.11687611   1.05637781
H   -0.66028716  -2.84232081   1.77159538
H   -1.72923990  -3.85335156   1.41515175
O    2.22021157   0.02592767  -2.28888592
H    2.72567578  -0.66011548  -2.74961794
C    2.81147193   1.27762685  -2.59903772
H    2.22993517   2.03895202  -2.07208024
H    2.77947824   1.50797170  -3.67546467
H    3.85642414   1.35022123  -2.25906379
O    0.18373617   2.27434753  -0.34383719
H    0.52999578   2.51711168   0.52770921
C   -0.78881109   3.24181567  -0.70534929
H   -1.16842720   2.95320962  -1.68926156
H   -0.36946116   4.25694691  -0.78554608
H   -1.63940414   3.27144181  -0.00649946
O    0.27483348  -2.35749762  -1.20700666
H   -0.18941776  -2.85113838  -0.51475463
C    0.01329854  -3.00128146  -2.44380721
H    0.54358691  -2.43244419  -3.21237966
H   -1.05731238  -3.00789282  -2.70173334
H    0.38347444  -4.03812941  -2.47014096
O   -1.37247518   0.26977902  -2.80136105
H   -2.33777110   0.19260057  -2.77546627
C   -1.00909909   0.68946176  -4.10687168
H    0.08115363   0.77131249  -4.11847674
H   -1.42812880   1.67350867  -4.36925139
H   -1.30550770  -0.03273580  -4.88362772
O   -0.92038419   0.60013288   2.98185574
H   -0.25538741   1.29896042   2.89329719
C   -1.98235489   1.11388207   3.76977310
H   -2.72238453   0.31401552   3.85952190
H   -2.47396687   1.98332000   3.30590601
H   -1.66078909   1.39685945   4.78431564
Na   0.18543027   0.02074391  -1.04661192
