46
Energy:   -675.30678603
O   -0.67778234  -0.50080462   3.08331130
H   -0.66295336  -0.75055290   4.00723649
H   -0.36887219   0.40513724   3.07461022
O   -2.33915442  -1.07854922   0.96355223
H   -1.88922326  -0.85563588   1.77847765
H   -3.26748306  -1.08763442   1.19669435
O    1.80144085   2.63730879   0.52171289
H    2.35222153   3.36984676   0.24555962
H    2.32071615   1.85823755   0.32263246
O    2.96500939   0.22172825  -0.03551997
H    3.82527810  -0.09469846   0.24024033
H    2.34309229  -0.33926006   0.42788383
O    0.90286362  -1.27851901   0.97394489
H    0.69241748  -2.19843532   0.81363816
H    0.45348899  -1.06867063   1.79263771
O    1.21267238  -0.63203057  -2.10394370
H    1.97469031  -0.27137999  -1.62678220
C    1.55053300  -0.68021531  -3.48091945
H    0.68136697  -1.08874420  -4.00354721
H    2.41107860  -1.33643500  -3.68491533
H    1.76500662   0.31483475  -3.90122145
O   -0.58482265   1.45127141  -0.40441445
H    0.18763615   1.97765093  -0.15014044
C   -1.74372202   2.19415670  -0.06147497
H   -2.60435565   1.58682560  -0.35463688
H   -1.80626962   3.15519535  -0.59558155
H   -1.81770117   2.39185004   1.01936810
O   -0.53257448  -3.28239862  -0.44585260
H   -1.23942363  -3.87097976  -0.14194505
C    0.25173225  -4.00066317  -1.38473106
H    1.04302690  -3.32309491  -1.71675399
H   -0.32437877  -4.31251330  -2.26995584
H    0.72721721  -4.89266173  -0.94766131
O   -2.33192083  -0.97060732  -2.54245323
H   -3.09046770  -1.47966748  -2.86476934
C   -2.18968288   0.16622938  -3.37905616
H   -1.33099157   0.72831803  -3.00197421
H   -3.06971066   0.82769480  -3.35091475
H   -1.98890892  -0.10052386  -4.42848927
O    0.36588756   2.00056696   2.87256921
H    0.91766044   2.32865101   2.14708261
C    0.31173894   3.01358434   3.86423321
H   -0.31355123   2.62755636   4.67385028
H   -0.14425283   3.94571164   3.49546832
H    1.30210489   3.25288551   4.28218963
Na  -0.75628332  -0.86392937  -0.79563310
