46
Energy:   -676.37019249
O    2.25319818  -2.48882153   0.93371065
H    3.15263412  -2.59053502   1.24500022
H    2.22395119  -1.60417498   0.56932494
O    0.29498344  -1.27925368   2.50061166
H    0.06563552  -1.72130710   3.31805900
H    0.95895902  -1.84164535   2.10175844
O    0.92102371  -0.96917561  -2.68861964
H    0.93552573  -1.87345526  -2.37509155
H    1.31165715  -1.01150586  -3.56145726
O    1.04368223  -3.41541351  -1.36772768
H    1.53583011  -3.25351274  -0.56286095
H    1.22760020  -4.33010658  -1.58160295
O    1.66184015  -0.08928696  -0.18955388
H    2.01645097   0.79977969  -0.18295849
H    1.50271163  -0.27733428  -1.11451235
O    2.54902653   2.57408550  -0.09356216
H    3.42506249   2.96030849   0.05414045
C    1.94833081   3.27016273  -1.17392086
H    0.96258126   2.82248693  -1.32679142
H    2.51705576   3.17191523  -2.11183168
H    1.80761101   4.34194017  -0.96352035
O   -2.78365451   0.32380534   1.76072151
H   -3.42400592  -0.16584476   2.29795155
C   -3.27362148   1.64609544   1.60575365
H   -2.54042425   2.18363698   0.99833607
H   -3.37669166   2.17658417   2.56530333
H   -4.24222292   1.68214371   1.08298305
O   -1.15436965  -2.04554249  -0.25934978
H   -0.54574647  -2.70199665  -0.62957812
C   -2.46115940  -2.36999902  -0.70607372
H   -3.13389579  -1.62078545  -0.27993998
H   -2.79380535  -3.36212048  -0.36282597
H   -2.55763271  -2.33125248  -1.80241716
O   -0.98460700   0.82160349  -1.47923953
H   -0.52871769   0.22935363  -2.09554165
C   -2.01061454   1.48554603  -2.19967177
H   -2.51388583   2.14845802  -1.49062247
H   -2.76070192   0.79085876  -2.60900763
H   -1.62047453   2.10146973  -3.02502387
O    0.20531961   2.10957501   1.50321328
H    0.98568902   2.48434981   1.06848266
C    0.32912252   2.35385698   2.89516620
H   -0.55795023   1.92532119   3.36944904
H    0.36059229   3.42770835   3.13730301
H    1.21708182   1.87252222   3.33405395
Na  -0.65416553   0.03761473   0.77027684
