46
Energy:   -675.42586193
O    3.06879831  -0.14823032   0.80149699
H    3.82614102   0.12608934   1.31861650
H    2.43883156   0.56550611   0.90126703
O   -1.46656431  -0.75633509   2.66877539
H   -2.10678706  -1.06431956   3.31025201
H   -0.74121476  -1.37723239   2.73649851
O    2.79974999  -1.58623771  -1.54849202
H    3.05542979  -1.09652681  -0.76679967
H    3.59513668  -1.62252505  -2.07978769
O    0.95505944  -3.47378511  -0.69404531
H    1.62713239  -2.93639841  -1.11328908
H    1.26622216  -4.37281310  -0.79967807
O    0.88457744  -1.71949860   1.43582600
H    1.74591286  -1.30835476   1.36306694
H    0.92097814  -2.46133521   0.83201702
O   -0.20176472   3.94029893  -0.03421473
H   -0.26593039   4.87126997   0.22578328
C    0.33658002   3.89587159  -1.34598640
H    0.40205120   2.84022054  -1.62311376
H    1.34785960   4.32778852  -1.40547350
H   -0.30228628   4.40390396  -2.08526327
O   -2.02207288   1.72882489   0.03655024
H   -1.60256840   2.59677755  -0.05883029
C   -3.42519227   1.93206757   0.08637155
H   -3.88204790   0.94454354   0.19390954
H   -3.82096421   2.39311905  -0.83209100
H   -3.73553167   2.54717009   0.94550814
O   -1.58126753  -2.16244565  -0.45688408
H   -0.89868376  -2.80780220  -0.69356447
C   -2.84349366  -2.75910326  -0.70851607
H   -3.60075058  -2.01877476  -0.43655859
H   -3.01551892  -3.66204768  -0.10198823
H   -2.98663323  -3.02021965  -1.76875502
O    0.48470483   0.02297278  -1.53776032
H    1.29336793  -0.46678123  -1.74901435
C   -0.30885671   0.07085447  -2.71270764
H   -1.21554086   0.62586495  -2.45702734
H   -0.60832400  -0.92877227  -3.06462104
H    0.19044194   0.59602274  -3.54197025
O    0.90763457   1.59171891   1.20557876
H    0.64070522   2.41438428   0.76923752
C    0.75815793   1.77807489   2.60395710
H    1.06304427   0.84216257   3.07997984
H   -0.28294612   1.98643202   2.89630451
H    1.39726762   2.58459016   2.99619333
Na  -0.73500476  -0.16989540   0.49767114
