46
Energy:   -673.48329674
O    3.11986720  -0.47156828   0.17831511
H    3.90688544  -0.81154286   0.60405144
H    3.11488866   0.46126369   0.39286482
O   -1.46962266  -1.12901094   2.60306379
H   -1.79673648  -1.58637261   3.37769189
H   -0.65520686  -1.58141589   2.38331733
O    2.12525711  -1.09577537  -2.31655643
H    2.59688939  -0.88945000  -1.50957150
H    2.79428170  -1.06384453  -3.00038270
O    0.35148191  -3.02603279  -1.46403659
H    0.97071065  -2.44803761  -1.90980468
H    0.56294524  -3.90101617  -1.78948889
O    0.68075536  -1.60579581   0.89488155
H    1.54519108  -1.21754556   0.75980939
H    0.58398641  -2.23170150   0.17717013
O    3.09270456   2.23517418   0.87163565
H    3.74601832   2.73807645   1.38025506
C    2.77370823   2.99099587  -0.28573581
H    2.03681827   2.41012532  -0.84704481
H    3.64517054   3.15827186  -0.93792406
H    2.32678085   3.96839910  -0.04549390
O   -2.89191061   1.61490598   0.61769841
H   -3.13402938   2.35856893   1.18933395
C   -3.99484880   1.35004299  -0.23430435
H   -3.70513058   0.50990812  -0.87126743
H   -4.24332254   2.20251562  -0.88570940
H   -4.90110228   1.06106129   0.32064749
O   -2.03822104  -1.68133706  -0.70125621
H   -1.39979524  -2.24842155  -1.15869577
C   -3.11765852  -2.50031198  -0.28098417
H   -3.82730359  -1.84576210   0.23229308
H   -2.80566716  -3.28587507   0.42494030
H   -3.64182511  -2.97831197  -1.12332775
O    0.05892331   0.62310968  -1.43761733
H    0.72067302   0.08926947  -1.90186429
C   -0.71205194   1.30031991  -2.41716684
H   -1.45235942   1.89678117  -1.87710758
H   -1.25104380   0.61072941  -3.08554550
H   -0.10883760   1.98323297  -3.03566466
O    0.39304636   1.57753885   1.65846660
H    1.27779228   1.88562605   1.41203163
C    0.18478042   1.91228598   3.02122243
H   -0.81619415   1.55818055   3.28226737
H    0.22098145   2.99787704   3.20276822
H    0.90623915   1.42316987   3.69430494
Na  -1.09476617   0.08839186   0.58098306
