16
Energy:   -379.66916223
Na  -0.96691811   0.10719757   0.00262242
O   -1.87159727   0.29247602  -2.16004481
H   -1.90132238   1.05820368  -2.73363824
H   -2.01706977  -0.45122415  -2.74483507
O    1.02714538   1.29316561   0.17920334
H    1.38980519   2.17856522   0.20708235
H    1.78003457   0.72069815   0.32641314
O    3.08739342  -0.49361156   0.43446146
H    3.53976378  -0.57296495  -0.40535753
H    3.79041383  -0.45183164   1.08272730
O   -2.75329604   0.88713861   1.26843017
H   -3.69066446   0.93178723   1.07980677
H   -2.68051923   1.14829332   2.18643540
O    0.18715607  -1.93436984   0.34493353
H    0.03136139  -2.87872281   0.33239001
H    1.11506942  -1.84709809   0.56309016
