16
Energy:   -379.21825189
Na   0.24479378   0.47493243   0.90532705
O    0.71225814  -1.72102300   0.22153060
H    0.87080915  -2.57729266   0.61889151
H    0.55867063  -1.91070348  -0.70403087
O   -0.59191969   0.86566272  -1.18675160
H   -0.88485930   1.58470129  -1.74657459
H   -0.70957555   0.08117588  -1.72244679
O   -1.27672728   0.86248250   2.61743093
H   -2.18722864   0.91956478   2.32767116
H   -1.32689322   0.88845702   3.57296249
O    2.19952018   1.65945105   1.16569221
H    3.10114259   1.34481314   1.10002749
H    2.28451430   2.58757399   1.38385650
O   -0.86508001  -1.49428538  -2.56923691
H   -0.44477593  -1.76200800  -3.38648897
H   -1.75409578  -1.84368450  -2.63090596
