16
Energy:   -379.41617478
Na   0.77197909  -0.15287576   0.54187883
O    2.38596745   0.80752101   1.89618455
H    2.47901373   1.70188610   2.22433899
H    3.03884412   0.30424243   2.38269721
O   -2.55900685   0.52075907  -1.49251149
H   -3.30290507   1.12291523  -1.50848785
H   -2.73301943  -0.09460023  -2.20475050
O    0.07312595   1.23816471  -1.14071699
H   -0.86080091   1.06051669  -1.25231290
H    0.28620022   1.85240576  -1.84324040
O   -1.51571738  -0.41814773   1.25240532
H   -2.06775516  -0.77813377   1.94659275
H   -2.13144935  -0.15426816   0.56868493
O    1.87401412  -2.03484581  -0.32535929
H    2.47797682  -2.12264616  -1.06275471
H    1.73004732  -2.93219379  -0.02490631
