16
Energy:   -379.12038428
Na  -0.43652751  -0.36560036   0.81024427
O    1.81211089   0.25959617   0.72388634
H    2.58786683   0.11412076   1.26543179
H    2.14909875   0.66887216  -0.07308555
O   -1.10345651  -2.32125000   1.87116613
H   -0.64802008  -3.16315824   1.87133506
H   -1.89406184  -2.47597873   2.38811300
O    1.61466772   0.67343533  -2.62894336
H    1.65291040   1.56604162  -2.97248864
H    2.21015692   0.17513276  -3.18869242
O   -1.72175222   1.35996680   1.69267279
H   -1.79566630   1.69607847   2.58586789
H   -2.37482541   1.85291000   1.19594926
O   -0.74038974  -0.04831008  -1.46772832
H   -1.37423553  -0.13536147  -2.17969280
H    0.08838861   0.14382222  -1.90641213
