16
Energy:   -379.54179449
Na   0.12754957  -0.35872579   0.91034920
O    0.34943513  -1.59318361  -1.07218054
H    0.21973708  -1.11308682  -1.89005421
H    0.51943493  -2.49414413  -1.34713883
O   -0.71241490   1.55159298  -0.13193450
H   -1.26607657   2.31052896   0.05165959
H   -0.75398315   1.44857813  -1.08266678
O    2.28750379   0.20221238   1.50425858
H    2.52658927   0.98403289   2.00208052
H    3.08508741  -0.32685003   1.49065015
O   -0.78333343   0.86388567  -2.82003105
H   -1.60025533   0.84682462  -3.31860840
H   -0.15442362   1.28742722  -3.40425433
O   -1.09748024  -1.07915613   2.71644316
H   -0.73588018  -1.22254501   3.59103842
H   -2.02088337  -1.31825967   2.79636823
