16
Energy:   -380.31304605
Na   0.52720028  -0.90877011   0.02703145
O   -1.96837768   2.40030883   0.13194947
H   -1.67665427   3.31197149   0.13123723
H   -2.92392640   2.45408810   0.11563138
O    0.76612964  -3.01114669  -0.73239594
H    1.59766567  -3.46693261  -0.86292896
H    0.09869783  -3.66861171  -0.92862631
O   -0.76415252   0.47680223  -1.33426784
H   -1.03068878   0.55604275  -2.25018881
H   -1.17541691   1.22365231  -0.89917199
O   -0.70125835   0.10595402   1.70335915
H   -0.76478962   0.11352252   2.65841849
H   -1.33984470   0.75817764   1.41518616
O    2.76748076  -0.25831803   0.22959089
H    3.22957119  -0.08741085   1.05025831
H    3.36368415   0.05393042  -0.45105164
