16
Energy:   -378.59980798
Na   0.70436448  -0.43442455   0.18318806
O    1.71119837  -2.46299699   0.72310907
H    1.66869888  -3.34981875   0.36537622
H    2.35784797  -2.51875296   1.42664827
O   -2.83666697   1.33899705  -0.80529450
H   -2.84767737   2.29218131  -0.71840156
H   -3.69864533   1.12032458  -1.15942374
O    0.15082931   0.29298236  -1.96660738
H    0.63913700   0.37045210  -2.78623284
H   -0.71473391   0.64837303  -2.16842322
O   -1.41802237  -0.13831555   1.01612404
H   -2.00639779  -0.43576575   1.71007619
H   -1.98041710   0.35684702   0.42050836
O    2.50918101   0.73725226   1.10558221
H    2.62250152   1.01082373   2.01582886
H    3.15511016   1.24927097   0.61891578
