16
Energy:   -378.44801919
Na   0.81401256   0.32167438   0.17290793
O    2.01232603   1.55258472  -1.45330364
H    2.34157622   1.19476239  -2.27779703
H    2.20784640   2.48830016  -1.50270247
O   -1.29074522   1.09198564   1.06092426
H   -2.04973588   0.57349754   0.79383792
H   -1.65918721   1.80731620   1.57936861
O   -0.05307438  -1.57306504  -0.80342737
H   -1.00877007  -1.59565476  -0.75477250
H    0.18708685  -2.41194872  -1.19691002
O   -2.87178576  -1.38103249  -0.58204123
H   -3.35413037  -2.08508781  -0.14858808
H   -3.42857994  -1.12625511  -1.31777255
O    2.41467785   0.34731264   1.87896179
H    3.34148118   0.48114650   1.68057850
H    2.37394310   0.33033568   2.83514395
