16
Energy:   -387.39963060
Na   0.33653576  -0.36439362   0.81336928
O   -1.74238383   0.13324142  -0.07426128
H   -2.68183874   0.10277547   0.10664795
H   -1.67969288   0.49778419  -0.95710343
O    0.67821641  -2.56162921   1.46446550
H    0.47888666  -3.36056086   0.97640023
H    1.05344215  -2.87130542   2.28880653
O    0.99830407   0.87634694   2.65996181
H    1.84794151   1.29083462   2.81012184
H    0.46125005   1.15418922   3.40199179
O   -1.05995629   1.12486223  -2.59579693
H   -1.19088377   2.05111393  -2.79864573
H   -1.34255352   0.66392744  -3.38567653
O    1.22780116   0.30400597  -1.21590999
H    0.55530097   0.62573679  -1.81629705
H    2.04213376   0.35897765  -1.71598237
