16
Energy:   -379.23707189
Na  -0.56105146   0.19365881  -0.75523303
O   -0.87011368   2.36497685  -1.47592216
H   -1.37544465   2.71754666  -2.20842949
H   -0.39986222   3.12038340  -1.12313843
O    1.98818595  -0.91971898   2.35346070
H    1.97783944  -1.69550053   2.91407446
H    2.66986040  -0.36191777   2.72817339
O    1.57082924  -0.86025176  -0.95203907
H    1.95259615  -0.96238080  -0.08022743
H    2.20233788  -1.27390636  -1.54052744
O   -2.47169679  -0.75740904  -1.67815850
H   -3.39440819  -0.50519430  -1.71313352
H   -2.41779748  -1.54590001  -2.21816654
O   -0.36761098   0.20509771   1.54615047
H    0.42013550  -0.17564123   1.93438389
H   -0.90533881   0.46028129   2.29579170
