16
Energy:   -379.86331216
Na  -0.07884111  -0.37123222   0.83462292
O   -0.88538660  -0.51340753  -1.32187966
H   -1.51478891  -0.98785835  -1.86500120
H   -0.58357526   0.20570581  -1.87687314
O    0.84175830   1.71414762   0.47084254
H    1.04083807   2.47339703   1.01869237
H    1.08341888   1.98690053  -0.41427771
O    1.23945682  -2.26049420   1.00988012
H    1.19776976  -3.04341879   0.46076891
H    2.01061697  -2.39457438   1.56084870
O   -1.46683580  -0.69030567   2.70657606
H   -2.33551659  -0.31636331   2.85419938
H   -1.32346213  -1.26760686   3.45650884
O    0.20025851   1.66028796  -2.62845252
H   -0.37579924   2.24186906  -3.12459035
H    0.97977425   1.56984505  -3.17654662
