16
Energy:   -378.92219521
Na   0.28527463   0.01432130   0.84666782
O   -0.74434645   1.76997533  -0.32946102
H   -0.87729411   2.69462661  -0.12071046
H   -1.21623477   1.63937914  -1.15195594
O    2.40681532   0.57281014   1.58808023
H    2.70550461   0.81614481   2.46432494
H    3.20898320   0.51199929   1.06936974
O   -0.68909363  -0.73288681   2.82201774
H   -0.43022220  -1.49787130   3.33584276
H   -1.51045692  -0.44362646   3.21941259
O    0.25042213  -1.46372698  -0.91852794
H    0.69233763  -2.23546794  -1.27258788
H   -0.27253176  -1.13090214  -1.64789665
O   -1.19391297  -0.19578993  -2.92919785
H   -0.67218945   0.27095531  -3.58202654
H   -1.92699968  -0.56122052  -3.42445153
