16
Energy:   -378.49840379
Na  -0.94008963  -0.25728960   0.17317455
O   -2.42726699  -0.40989621   1.95879707
H   -2.36225343  -0.00970779   2.82589240
H   -3.22710029  -0.93441532   1.99592185
O    0.98091281  -1.60831714   0.36473746
H    1.17763415  -2.36689193   0.91437084
H    1.81666527  -1.38603985  -0.04555814
O    0.36411698   1.57643825  -0.25125535
H    1.29986216   1.37704316  -0.28048587
H    0.31906040   2.52906227  -0.33316520
O   -2.24188900  -0.47848056  -1.77355635
H   -2.60154323   0.23637621  -2.29878057
H   -2.40317187  -1.26446801  -2.29551748
O    3.05118631   0.90153423  -0.27767158
H    3.59628962   0.82688225  -1.06094759
H    3.63994291   1.24919467   0.39220134
