16
Energy:   -378.40264105
Na   0.47259494  -0.25017928  -0.79738102
O   -1.58171605   0.83971583  -0.65388919
H   -2.29048851   1.10267843  -1.24102130
H   -1.86230294   1.14003146   0.21058370
O   -1.63067017   0.48763194   2.76658425
H   -2.03380483  -0.22330005   3.26487132
H   -1.72276445   1.25692960   3.32866219
O    0.67411046  -0.25027791   1.48467828
H   -0.08839761  -0.00456200   2.00854560
H    1.38344847  -0.34059274   2.12100733
O    2.15973667   1.08733480  -1.70544459
H    2.32807588   2.02629469  -1.62639978
H    2.70622249   0.80649852  -2.43941740
O    0.52518633  -2.22511051  -2.04232454
H    0.00060639  -2.37721362  -2.82839857
H    0.93371682  -3.07112155  -1.85902149
