16
Energy:   -378.69508822
Na  -0.36942477  -0.32109751   0.82145635
O    1.29218260   1.18975184  -2.63350753
H    2.18721587   1.49991663  -2.77114872
H    0.85604412   1.33510168  -3.47308391
O    1.25400820  -1.46548367  -0.39445680
H    1.73116046  -2.28114300  -0.24195296
H    1.51379847  -1.19662918  -1.27562541
O   -2.56943877  -0.92081694   0.35598150
H   -3.19534329  -0.33589263  -0.07103014
H   -3.05525676  -1.73432459   0.49169451
O    0.10923358   1.67226889  -0.21310862
H    0.47768162   1.59122218  -1.09282978
H    0.02305714   2.61552141  -0.07497768
O   -0.11767972  -0.51520789   3.12395180
H   -0.82837059  -0.46933313   3.76351872
H    0.66651473  -0.67873100   3.64790897
