16
Energy:   -378.96949910
Na  -0.79060344  -0.37894759   0.39245736
O    2.73193551   0.92381067  -1.32945208
H    3.33375441   1.62902819  -1.09130481
H    3.20005275   0.42458685  -1.99868572
O    1.51858056  -0.95174302   0.91458297
H    2.21601012  -0.45759158   0.48372545
H    1.97817010  -1.60043969   1.44768889
O   -2.48707388  -1.54258035  -0.68557875
H   -3.12771342  -2.05339578  -0.19072482
H   -2.68359810  -1.73466006  -1.60248412
O   -0.00677352   1.20560787  -1.11413722
H    0.94113224   1.17003286  -1.24235948
H   -0.29723942   1.92836995  -1.67044324
O   -1.98209573   0.27413821   2.28754237
H   -2.90942127   0.50785931   2.32845252
H   -1.60174125   0.66248357   3.07541939
