16
Energy:   -383.67079189
Na  -0.07415928   0.02657487   0.11479323
O   -1.42222464  -1.87710806   0.32621547
H   -2.29856495  -2.01706483  -0.03249279
H   -1.23032884  -2.67984492   0.81100551
O   -1.90203191   1.11447244  -0.91668743
H   -2.69596246   1.49460636  -0.54064977
H   -1.98655699   1.26499394  -1.85819188
O    1.17281599  -0.42023604  -1.81544804
H    1.83862045   0.13298838  -2.22395632
H    1.13116254  -1.19710830  -2.37309158
O    1.40132627  -0.93505695   1.69175115
H    1.33714524  -1.00772374   2.64402851
H    2.23428852  -1.35374579   1.47471338
O    0.71027729   2.13220395   0.77583387
H    0.36465877   2.99002250   0.52899986
H    1.43287150   2.32724681   1.37253123
