16
Energy:   -387.48935791
Na   0.18332312   0.17415155  -0.92873507
O   -1.35068416   0.66563010  -2.59602313
H   -2.12162779   1.22777638  -2.51941154
H   -1.38533910   0.33162306  -3.49238811
O   -0.09223723  -1.69713333   0.40633827
H   -0.15866614  -2.65174357   0.38313617
H   -0.26655889  -1.46654327   1.31884692
O   -0.57365777  -0.54493309   2.90621494
H   -1.42809923  -0.64307079   3.32637041
H    0.05762359  -0.65879744   3.61667296
O   -0.18078562   1.43781664   0.97668783
H   -0.33859272   0.89171990   1.74682232
H   -0.17645542   2.33345728   1.31438731
O    2.25271812   0.19121064  -1.97367379
H    2.59138395   0.81402199  -2.61682489
H    2.97823334  -0.41414039  -1.82067167
