46
Energy:   -673.31804409
O    2.11762745  -1.55118331   2.75910406
H    2.58746247  -1.87550483   3.52741549
H    1.45091194  -2.21612644   2.58713627
O    0.24217229   0.43831267   2.37931257
H   -0.56883687  -0.04459970   2.53834599
H    0.93547334  -0.15546401   2.66740065
O   -2.03457031  -1.12075131   2.22601680
H   -2.88097953  -1.05802759   2.66861030
H   -2.16158506  -0.65696808   1.39836699
O    0.63779352   2.79450613   0.89066042
H    1.09094104   3.62695392   1.02452544
H    0.58582095   2.40638876   1.76409937
O   -0.09730428  -3.09658391   2.12746096
H   -0.85628300  -2.52547892   2.24587647
H   -0.40985179  -3.96604775   2.37761799
O    2.73799166   0.08469048   0.48935075
H    2.82445032  -0.53499376   1.22890441
C    4.04559485   0.41381134   0.04845720
H    3.92969809   1.11240825  -0.78461872
H    4.60459152  -0.46227407  -0.31592505
H    4.64525925   0.90889577   0.82824650
O   -2.46737648   0.08579285  -2.89133774
H   -2.76757533  -0.73914097  -3.30095722
C   -3.18938654   1.15073041  -3.48895238
H   -2.83895846   2.07218013  -3.01607209
H   -4.27542068   1.07375288  -3.32347839
H   -3.00785653   1.23246398  -4.57207002
O    0.24755425  -1.72088183  -0.30994851
H    0.14304450  -2.37741905   0.39465057
C    0.99025712  -2.32656579  -1.35592803
H    1.09871933  -1.57342907  -2.14110714
H    0.47929583  -3.20051414  -1.78941409
H    1.99823769  -2.63577491  -1.03789939
O    0.14612914   1.07559772  -2.30254545
H   -0.67345897   0.78620816  -2.73027469
C    0.90603053   1.78790267  -3.26572005
H    1.82556820   2.10653865  -2.76731580
H    0.38872003   2.68718261  -3.63512871
H    1.18456121   1.16694534  -4.13152025
O   -2.01036835   0.48923338  -0.07213259
H   -2.25724397   0.31267882  -0.99208052
C   -2.51785195   1.76857886   0.27177044
H   -2.23084382   1.95147490   1.31083760
H   -3.61586709   1.82213331   0.20640988
H   -2.09320835   2.57480452  -0.34665930
Na   0.49589636   0.62164427  -0.03245890
