46
Energy:   -674.02630708
O    3.29199504  -1.32918811   0.89453588
H    4.19384359  -1.62093045   0.76116625
H    2.79576057  -2.13676803   1.02794457
O   -0.35153594  -0.04654185   1.87709905
H    0.52263614   0.22393077   2.15798973
H   -0.92849708   0.65479359   2.17954953
O    1.69404384  -3.50711267   1.11585582
H    0.76495442  -3.30329984   1.22302403
H    1.75227239  -4.44997489   1.27029717
O    2.24181181   0.74205513   2.34286839
H    2.75671891   0.89262372   3.13560518
H    2.69871359   0.03257952   1.89107532
O   -0.90957685  -2.69951712   1.50258669
H   -0.70454756  -1.79965504   1.75644311
H   -1.40137804  -3.05198187   2.24429556
O    1.30535635  -0.62110575  -0.99016340
H    2.08262213  -0.84911611  -0.45885139
C    1.19042204  -1.58810231  -2.02178424
H    0.31012099  -1.31624196  -2.61055177
H    1.04014960  -2.60781075  -1.63398247
H    2.06187790  -1.59729493  -2.69502826
O    0.99611812   2.29889571   0.32384376
H    1.60745660   1.99369331   1.01053148
C    1.65868777   3.30420542  -0.42641461
H    0.95605790   3.63679299  -1.19529820
H    2.56447183   2.93157189  -0.92987943
H    1.93512682   4.17789459   0.18434394
O   -1.98227659  -1.20508915  -0.64942040
H   -1.75534326  -1.90753113  -0.02212477
C   -2.77459668  -1.78292344  -1.67454000
H   -3.02128202  -0.97808355  -2.37229661
H   -3.71755648  -2.20686962  -1.29523302
H   -2.24080561  -2.56752491  -2.23332883
O   -0.83597424   1.57865077  -2.62900661
H   -0.23890817   1.73340272  -3.37599203
C   -2.13071811   2.01011599  -3.01631768
H   -2.79050610   1.82866400  -2.16353390
H   -2.52536506   1.45006669  -3.87851017
H   -2.16747083   3.08484520  -3.25377018
O   -2.42847250   1.72812097   0.69407070
H   -3.34505431   1.42330602   0.76747986
C   -2.42764703   3.13584813   0.86967638
H   -1.38772799   3.46251721   0.78399736
H   -2.80088982   3.44109412   1.85977336
H   -3.01487697   3.66074277   0.09998556
Na  -0.57313141   0.69896084  -0.46021469
