46
Energy:   -673.36441714
O    3.18644060  -0.46254843  -0.14628599
H    4.05093455  -0.37498004   0.25522843
H    2.58039423  -0.12358127   0.51253182
O   -0.40321759  -1.03227880   3.05024337
H   -0.32007148  -1.33566405   3.95427654
H   -0.32946032  -1.82744398   2.52250856
O    1.73870549  -2.66729872  -0.88167323
H    2.23314659  -3.23461330  -1.47320854
H    2.35409212  -1.97365945  -0.64419542
O   -0.60240501  -1.17551458  -0.94990819
H    0.20314305  -1.64899722  -1.15760593
H   -1.02801200  -1.70890262  -0.27864986
O    1.15964755   0.54078691   1.40978538
H    0.69988038   0.02028388   2.06851340
H    1.00794809   1.44863394   1.67252651
O    1.48917440   1.23023730  -1.67337030
H    2.26429476   0.71603281  -1.40280524
C    1.68868010   1.63401750  -3.01861852
H    0.80653210   2.21192330  -3.30727921
H    1.77926663   0.78128486  -3.70957327
H    2.57384945   2.27733625  -3.14268925
O   -0.09198981   3.06748808   1.01556134
H   -0.74183827   3.53462716   1.56136472
C    0.78544997   4.03743729   0.46616917
H    1.51080510   3.49422742  -0.14560544
H    1.33918927   4.59533592   1.23746628
H    0.26692411   4.76160673  -0.18150890
O   -0.12163940  -3.07890736   1.25058970
H    0.59471943  -3.13253042   0.60068366
C   -0.60987756  -4.39391707   1.46250181
H   -1.41599262  -4.31517389   2.19698341
H    0.15699507  -5.07194046   1.86866433
H   -1.02433492  -4.84617198   0.54791561
O   -1.95474759   2.20587727  -1.83680274
H   -2.45861110   3.02730150  -1.93583338
C   -2.31097427   1.35027192  -2.91084920
H   -1.73445360   0.42995404  -2.78386846
H   -2.06108940   1.77659413  -3.89501598
H   -3.38017291   1.08648771  -2.90776680
O   -2.02277467   0.50199290   1.31814430
H   -1.72275850  -0.00797208   2.08518361
C   -3.43593447   0.39425332   1.25565150
H   -3.75708502   0.97431341   0.38623915
H   -3.93384234   0.80940962   2.14588199
H   -3.77763649  -0.64366039   1.11871287
Na  -0.47606796   1.09405635  -0.37825787
