46
Energy:   -673.44080899
O    3.28082990  -0.62371267   1.54622438
H    2.76593523   0.16839686   1.70010036
H    4.14147596  -0.42602826   1.91560372
O    1.49186199   1.49322718   1.67080887
H    0.84313400   1.36265971   2.36242725
H    1.73111612   2.41763429   1.73759801
O    1.36705645  -2.59773551   1.68270671
H    2.12631039  -2.01498150   1.69547601
H    1.64773394  -3.36842471   2.17615393
O   -0.65179926   0.90519470   3.28984730
H   -0.85708792   0.58759675   4.16917656
H   -0.79361250   0.14782176   2.72195024
O   -0.67062683  -0.87738557   1.19446237
H    0.00931992  -1.53068486   1.35909625
H   -1.36946996  -1.36342247   0.75672013
O    1.89428417  -0.42753535  -0.91530411
H    2.59056377  -0.62812152  -0.27235529
C    1.87137189  -1.47923318  -1.86711317
H    1.08170281  -1.23733441  -2.58362760
H    1.63565859  -2.45586866  -1.41611460
H    2.81850477  -1.57192184  -2.42130218
O    0.64544984   2.88227323  -1.47332802
H    0.32669808   3.79682628  -1.45299783
C    1.56290561   2.77004161  -2.54953095
H    1.91206208   1.73394115  -2.55794460
H    2.44021339   3.42497269  -2.43047768
H    1.10068972   2.98246369  -3.52626565
O   -2.62969924  -2.24195368  -0.30614518
H   -3.53431214  -2.52813053  -0.11069289
C   -1.89872193  -3.38275095  -0.72660629
H   -0.88232351  -3.04253011  -0.94263689
H   -2.30865432  -3.83669667  -1.64239341
H   -1.84035220  -4.16065447   0.05072017
O   -1.47529146  -0.04830797  -1.73930508
H   -1.99878331  -0.81405734  -1.46000693
C   -1.92973037   0.33732540  -3.02666903
H   -1.32960273   1.20087467  -3.32602615
H   -2.98870130   0.63955014  -3.03092275
H   -1.79087174  -0.45291008  -3.78100549
O   -1.50898268   2.23539337   0.90093975
H   -1.54790056   2.10570149   1.86015228
C   -2.80495351   2.61318900   0.46474732
H   -2.74315367   2.75519041  -0.61761195
H   -3.14602154   3.55893486   0.91420778
H   -3.56319343   1.84001407   0.66487251
Na   0.08353091   0.93076020  -0.27543383
