46
Energy:   -671.90312442
O    2.69570626  -1.13977122   1.93534280
H    2.90375331  -1.11472890   1.00136145
H    3.54214904  -1.04604148   2.37235676
O   -1.86108658  -1.21109794   1.60332914
H   -1.19712121  -1.82576236   1.91569028
H   -2.68717923  -1.55915401   1.93897740
O    2.82918804  -0.95739940  -0.81569180
H    2.30882254  -0.22333600  -1.14219222
H    3.51018746  -1.08162973  -1.47678064
O    0.32266380  -2.10620275  -0.57967821
H    1.24721577  -1.92072154  -0.74409295
H    0.31759653  -2.58445925   0.24946405
O    0.59195313   0.58993183   1.54213771
H    0.10267994   0.64620198   2.36291617
H    1.36682808   0.07179108   1.75969415
O    0.94467656   0.93627363  -1.64575996
H    0.92220474   1.89689136  -1.52274832
C    0.56286263   0.66475639  -2.98480077
H    0.59355698  -0.42143922  -3.10613563
H    1.24971791   1.11009475  -3.72146956
H   -0.45940762   1.00497740  -3.21281508
O    0.54420829   3.74786757  -1.20278638
H    0.61912170   4.53416198  -1.76363605
C    1.27312725   3.99774020  -0.01166313
H    1.17820820   3.10222866   0.60844546
H    0.87569278   4.85174440   0.55886295
H    2.34446975   4.17234694  -0.19744548
O    0.38422297  -2.78859624   2.14186185
H    1.24644017  -2.37775503   2.30377010
C    0.40200419  -4.07575890   2.73804126
H   -0.57648749  -4.52436414   2.54622734
H    0.55213004  -4.03736032   3.82834631
H    1.17054039  -4.73464444   2.30445241
O   -1.63948558   2.13516402  -0.28699949
H   -1.02842603   2.84136606  -0.54450323
C   -2.74867040   2.73983932   0.35845430
H   -3.42686143   1.93036791   0.64182363
H   -3.29835531   3.43124869  -0.29925149
H   -2.46415400   3.28284314   1.27331746
O   -2.30913253  -0.89961169  -1.89690312
H   -2.34572473  -1.81409034  -2.21441390
C   -3.42247284  -0.20982427  -2.44206405
H   -3.36579817   0.81832838  -2.07440209
H   -4.38574195  -0.63510123  -2.11952808
H   -3.40690751  -0.18009767  -3.54281442
Na  -0.84640234  -0.08610478  -0.23266098
