46
Energy:   -672.75508854
O    3.04682090  -1.74432587   1.76440774
H    3.75045911  -2.37657357   1.91065400
H    2.24926760  -2.27323076   1.74440261
O   -0.18574343  -0.24707712   1.76357236
H    0.61829584   0.18918151   2.04540763
H   -0.88934304   0.32425313   2.07140541
O    0.52049630  -2.88535406   1.76235450
H    0.18716554  -1.98965379   1.81567881
H    0.20829930  -3.30570559   2.56364688
O    2.30025993   0.82374072   2.27248247
H    2.78521450   1.13850087   3.03535661
H    2.68428632  -0.03170104   2.08019370
O   -0.50991205  -3.33291025  -0.73512326
H   -0.14094239  -3.31592622   0.14794230
H   -0.49504577  -4.25715253  -0.98369327
O    0.70631022  -0.87579094  -1.44763926
H    0.45978775  -1.81053370  -1.38514194
C    2.09632196  -0.81482661  -1.72455890
H    2.35709508   0.24487860  -1.79169652
H    2.36076835  -1.29271530  -2.68083702
H    2.70867367  -1.26733555  -0.92892182
O    1.04981808   2.12986858   0.10702563
H    1.67723568   1.85881414   0.79353850
C    1.65043484   3.17931516  -0.63490103
H    0.93040550   3.47255841  -1.40369966
H    2.57891071   2.86703599  -1.13808252
H    1.87044231   4.06450750  -0.01780415
O   -2.27441909  -1.10027728  -0.69640861
H   -1.87840425  -1.98419155  -0.71346991
C   -3.45543958  -1.14253229  -1.48122635
H   -3.88866833  -0.13909047  -1.45118378
H   -4.20277447  -1.84896256  -1.08724136
H   -3.25744615  -1.39750531  -2.53411034
O   -1.59305718   2.03466520  -2.18229644
H   -2.03787620   2.87857597  -2.35074202
C   -1.26666678   1.46188980  -3.43845384
H   -0.76643029   0.51220853  -3.23023725
H   -0.57774617   2.08906219  -4.02566805
H   -2.15545115   1.25183962  -4.05385501
O   -2.29182445   1.58163259   1.23387956
H   -3.23766633   1.38145422   1.29499454
C   -2.10753285   2.92304335   1.65718504
H   -1.03691397   3.13189734   1.58208226
H   -2.41447500   3.08512643   2.70231323
H   -2.64189826   3.64666042   1.02188252
Na  -0.74158955   0.69275008  -0.43641899
