46
Energy:   -672.94674954
O    3.15064061  -1.47695871  -0.72263791
H    2.47522824  -1.78650745  -1.32615226
H    3.96529986  -1.54041656  -1.22117101
O    1.58396620   0.49954660   0.47427470
H    2.16548313   0.03389205  -0.12675421
H    1.79579664   0.14359481   1.33721041
O    0.97786943  -2.10719377  -2.25961755
H    0.33743311  -2.09461863  -1.54834051
H    0.77060720  -2.89945605  -2.75519267
O    2.62625665  -1.70999298   2.02137443
H    3.43890278  -1.85221440   2.50677239
H    2.88460668  -1.75967841   1.10103837
O    0.00498158  -2.26750654   2.55845018
H    0.94835678  -2.14706613   2.44996426
H   -0.07473081  -2.99899406   3.17066239
O   -0.06547120   0.53023721  -2.31940565
H    0.34841753  -0.29568138  -2.61091530
C    0.40791567   1.56941009  -3.16116475
H   -0.06811704   2.49232790  -2.81896484
H    0.13743899   1.41724522  -4.21779408
H    1.49904848   1.70425479  -3.09773416
O   -0.70932055   3.20488130   0.00146426
H   -1.41021620   3.87211177  -0.04294347
C    0.52091464   3.88499044   0.19253155
H    1.29938332   3.11870815   0.24031405
H    0.54827810   4.45849119   1.13227911
H    0.76338483   4.56664788  -0.63772664
O   -0.73101178  -1.73647734  -0.11168696
H   -0.52681483  -2.02858136   0.78909166
C   -2.03244271  -2.20239344  -0.43064387
H   -2.24640041  -1.86463626  -1.44830166
H   -2.80665946  -1.79065576   0.23556769
H   -2.10705818  -3.30097942  -0.41279147
O   -3.05817464   1.02597124  -0.33072291
H   -3.80029019   1.08271770   0.28933163
C   -3.57348661   1.22185486  -1.63786366
H   -2.72448533   1.15480483  -2.32356500
H   -4.03959376   2.21117291  -1.76736756
H   -4.30646388   0.45203237  -1.92577855
O   -1.04970035   0.34171579   2.23134107
H   -0.80437439  -0.51490693   2.61138839
C   -1.09124112   1.28593688   3.28928940
H   -1.36901611   2.24498356   2.84369349
H   -0.11669141   1.41019437   3.78687384
H   -1.84246574   1.03460934   4.05432102
Na  -0.69822559   0.83020980  -0.06271153
