46
Energy:   -672.21496813
O    0.11509928   0.00689390   1.81160501
H   -0.13649353   0.91781761   1.96375928
H   -0.68235500  -0.49412103   1.98272649
O   -1.06328882   2.54235292   1.84483026
H   -1.78808844   2.14036684   1.36597272
H   -1.48116864   2.99332280   2.57847491
O   -0.34441235   0.73671425  -1.35148032
H    0.03715683   1.59776111  -1.18049755
H    0.11358488   0.42170961  -2.13073795
O   -2.36347564  -1.26887756   1.74267753
H   -2.68715368  -0.51857751   1.24416554
H   -3.08157808  -1.49109415   2.33528239
O    2.65367653   1.06217461  -0.19181574
H    2.14992506   1.87600067  -0.20420360
H    3.47773895   1.29649413   0.23508863
O   -0.50695800  -2.43706316  -0.03652640
H   -1.28740245  -2.24990473   0.50596919
C   -0.35007960  -3.84585234  -0.09341198
H    0.53325682  -4.03901689  -0.70813910
H   -1.20922282  -4.35081163  -0.56209778
H   -0.18119472  -4.29527822   0.89768419
O    2.89713112  -2.23522375   0.51802993
H    3.74208481  -2.60868597   0.22647802
C    2.72626854  -2.57271591   1.88530416
H    1.76993198  -2.14440028   2.19747611
H    3.51490167  -2.15235096   2.52883226
H    2.68411776  -3.66035145   2.05278422
O   -2.69909379   0.99914068   0.16589027
H   -2.02324638   0.86709950  -0.51544568
C   -3.90144647   1.37351425  -0.48735259
H   -4.65187566   1.51822771   0.29456763
H   -4.27091808   0.59729300  -1.17564660
H   -3.80530129   2.31704788  -1.04706476
O    1.62354543  -0.91503388  -2.55830381
H    2.46154719  -0.73156814  -3.00832232
C    0.96558567  -1.94592149  -3.27725684
H    0.02376841  -2.14004152  -2.75688883
H    1.54264971  -2.88361054  -3.29992107
H    0.72987229  -1.65783473  -4.31370393
O    0.73765197   3.06325323  -0.25305628
H    0.16678509   3.13297274   0.52647786
C    0.93502913   4.37322138  -0.76055947
H    1.58003280   4.27628424  -1.63808933
H    1.43695602   5.03740270  -0.03965040
H   -0.00431088   4.85207967  -1.07854127
Na   1.16861698  -0.77048787  -0.15242034
