46
Energy:   -676.51072691
O    2.45448447  -1.69475168   1.28781893
H    3.23917128  -1.64714959   1.83392560
H    2.03088951  -0.84396542   1.40166923
O   -1.10162011  -0.49768243   3.14889955
H   -1.27385059  -0.66982746   4.07460717
H   -0.92000883  -1.35959385   2.77425586
O    2.15130244  -1.89448595  -1.42957596
H    2.66076990  -2.60155982  -1.82545639
H    2.39845497  -1.90920701  -0.50495130
O   -0.48334171  -1.31290740  -0.74618539
H    0.33367212  -1.63068524  -1.13055175
H   -0.60043463  -1.84390358   0.04157355
O    0.89251298   0.56258314   1.54724552
H    0.24846648   0.30001355   2.20488763
H    0.91594872   1.51791014   1.60231768
O    1.55232989   0.83775307  -1.79173946
H    1.97402241  -0.03420115  -1.80890130
C    1.88958345   1.50280062  -2.99859718
H    1.40655021   2.48304298  -2.96269447
H    1.52287123   0.97404779  -3.89230850
H    2.97394671   1.66038855  -3.10859589
O    0.13000751   3.13112738   0.61359299
H   -0.50338015   3.77547424   0.96296455
C    1.25954450   3.84923916   0.14349148
H    1.96279133   3.10840263  -0.24649614
H    1.76645796   4.41426699   0.94133836
H    1.01100871   4.54641233  -0.67195739
O   -0.17557739  -2.67907095   1.71975903
H    0.79061436  -2.62733676   1.67263827
C   -0.53105853  -4.05142257   1.77284358
H   -1.62243510  -4.09143433   1.82558283
H   -0.12741215  -4.56118108   2.66165919
H   -0.21187893  -4.60829714   0.87797352
O   -1.66163314   1.98192006  -2.27430181
H   -2.08920023   2.80211774  -2.56220010
C   -1.98134844   0.97467171  -3.22075132
H   -1.49188885   0.05781005  -2.88122340
H   -1.60883343   1.20660006  -4.23081030
H   -3.06335011   0.78013916  -3.28561114
O   -2.23858055   0.91176124   0.99324935
H   -2.11524393   0.47328529   1.84820560
C   -3.58081265   0.69530137   0.58816676
H   -3.70247278   1.19573206  -0.37632956
H   -4.31165996   1.12563156   1.29063061
H   -3.81691417  -0.37161978   0.45137250
Na  -0.42023695   1.02883226  -0.50521930
