46
Energy:   -673.33139238
O    2.26842109  -1.78490882   2.24627858
H    3.11700835  -2.16177979   2.47887218
H    1.93450704  -2.35480426   1.55349258
O   -2.14742291  -0.48203059   2.68832271
H   -2.79915694  -0.74399945   3.33858953
H   -1.31914003  -0.47500416   3.16804132
O    1.13227543  -3.10271647   0.13483327
H    0.91650601  -4.02760846   0.01545904
H    0.28373911  -2.66158189   0.17506061
O    1.25953625   0.61647889   1.23060780
H    0.82722572   0.77544253   2.06969659
H    1.82993705  -0.13484377   1.39305485
O    0.36174527  -0.41128663   3.77315718
H    0.67814950  -0.28750007   4.66802985
H    1.01305145  -0.98182548   3.36509159
O    1.39431019  -0.91988928  -1.65952311
H    1.54305056  -1.78566541  -1.25119570
C    2.58178945  -0.55815012  -2.34623380
H    2.39686494   0.41921226  -2.80016210
H    2.83995212  -1.26474517  -3.15050540
H    3.44948525  -0.46397183  -1.67465969
O    1.08054774   2.60965006  -1.20436678
H    1.77006539   2.96227494  -0.62243519
C    0.96624993   3.48428382  -2.31544084
H    0.18549700   3.07229653  -2.96055830
H    1.89547688   3.54918546  -2.90289499
H    0.66671172   4.50351838  -2.02524245
O   -1.12104799  -1.49363374   0.26464639
H   -1.55410499  -1.25065099   1.09641816
C   -2.12672000  -1.94477783  -0.62845304
H   -1.62169240  -2.21431754  -1.56000051
H   -2.87240357  -1.16728093  -0.85699607
H   -2.65654231  -2.83595459  -0.25714504
O   -1.63120282   0.86273840  -2.51305718
H   -2.46206235   1.34964365  -2.61802855
C   -1.28396264   0.32589989  -3.77945461
H   -0.34601832  -0.21922131  -3.64311481
H   -1.11877742   1.10448349  -4.54057139
H   -2.03679254  -0.38057315  -4.16275646
O   -1.76684118   1.53278228   0.73165763
H   -2.11359635   1.03928874   1.48971320
C   -2.02357435   2.90915162   0.96019495
H   -1.62665939   3.45031754   0.09701295
H   -1.52166055   3.29118064   1.86292065
H   -3.09879243   3.13379907   1.03904251
Na  -0.11228372   0.63033597  -0.70673337
