46
Energy:   -673.09265485
O    2.62368857  -1.30019831   1.48171754
H    3.48266262  -1.25581406   1.90174787
H    2.81666624  -1.35122231   0.54556156
O   -1.37268432  -0.94282786   2.87047242
H   -1.58668814  -1.17132803   3.77502860
H   -0.94087457  -1.72264891   2.52168693
O    2.68232646  -1.42632676  -1.25820402
H    3.03913127  -2.03005267  -1.90969247
H    1.73575326  -1.56308892  -1.29728261
O   -0.05785987  -1.48350253  -0.95132081
H   -0.83288260  -1.70587918  -1.46718926
H   -0.15328727  -1.98960895  -0.14448641
O    0.53610473   0.55344743   1.47723898
H    1.33245128   0.02837860   1.55703096
H   -0.06646335   0.17428967   2.11706939
O    1.66685599   1.19190947  -1.56062147
H    2.27490626   0.43783892  -1.56932425
C    2.44847998   2.37448074  -1.50473852
H    1.74795990   3.21392923  -1.49562541
H    3.10820934   2.48986832  -2.37893541
H    3.06476454   2.43423650  -0.59402455
O   -1.02905063   3.22579969  -0.65141979
H   -1.34289208   3.91135207  -1.25965062
C   -0.74189520   3.85014342   0.58965653
H   -0.38972833   3.06383280   1.26284246
H   -1.62850335   4.31801771   1.04550407
H    0.05014943   4.61109308   0.50966754
O    0.22139883  -2.77978350   1.53121538
H    1.13283665  -2.47499606   1.65290761
C    0.20302005  -4.18101578   1.75199604
H   -0.83082376  -4.50774208   1.61092123
H    0.51118907  -4.45467235   2.77323121
H    0.83559280  -4.73222393   1.03869482
O   -1.76549189   0.48944676  -2.60975980
H   -2.71689974   0.43277049  -2.78306350
C   -1.12006261   0.77480832  -3.84041963
H   -0.04940709   0.83522658  -3.62703829
H   -1.43661955   1.73652222  -4.27363484
H   -1.27401076  -0.01326544  -4.59408868
O   -2.44020736   0.26573975   0.56527848
H   -2.31284874  -0.18871460   1.41125384
C   -3.60172565   1.07206005   0.68041578
H   -3.73040945   1.57669431  -0.28097381
H   -3.50834807   1.84327891   1.46097932
H   -4.51023462   0.48286143   0.88099936
Na  -0.48624851   0.92001899  -0.62756948
