46
Energy:   -673.31129375
O    1.15294839  -2.86474781   2.37947351
H    1.38427673  -3.68483037   2.81557400
H    0.99877816  -3.11285829   1.46793384
O   -0.72775499   1.62888858   1.97194083
H   -1.22692133   1.97524386   2.71160483
H   -0.07691027   1.05147828   2.37097760
O    1.94429065  -1.46988600  -1.79426885
H    2.83507925  -1.53378596  -2.13871669
H    1.98852175  -0.76996865  -1.14281573
O    0.59694619  -3.32059856  -0.29154427
H    1.12771128  -2.76984583  -0.86703685
H    0.49147814  -4.14042620  -0.77423566
O    1.64163825   0.55573367   0.02557030
H    1.67950292   0.37025254   0.96386390
H    1.75807650   1.50379290  -0.03653985
O    0.51784440   3.13081743  -0.51641680
H    0.40999793   3.91228660   0.04580943
C    0.81614343   3.58197245  -1.82790855
H    0.93444196   2.68919505  -2.44794014
H    1.75346531   4.15802871  -1.87653161
H    0.00937034   4.19386679  -2.26089797
O   -2.88235420   1.90215179  -0.78658488
H   -3.43752916   2.68754792  -0.67101251
C   -3.69351659   0.87968191  -1.34255673
H   -3.05258533   0.00251245  -1.46611264
H   -4.09863349   1.14838602  -2.33071447
H   -4.53309323   0.59944762  -0.68730324
O   -1.19040530  -1.19996824   0.25400682
H   -0.68590180  -2.00464313   0.06322469
C   -2.07217418  -1.48904617   1.32706384
H   -2.63256568  -0.57214683   1.52891072
H   -1.54120167  -1.77449716   2.24867290
H   -2.79430775  -2.28350162   1.08182726
O   -0.23312186   0.21871919  -2.50132110
H    0.46104528  -0.45626114  -2.53225339
C   -0.79723722   0.31579246  -3.79935207
H   -1.57714109   1.08028623  -3.74658444
H   -1.26328715  -0.62493990  -4.13191398
H   -0.06401622   0.62801188  -4.55940689
O    1.30165374  -0.10700431   2.69920806
H    1.24651900  -1.07415556   2.70058743
C    2.18197382   0.27542459   3.74386995
H    2.23254275   1.36752290   3.72808192
H    3.20205216  -0.11559973   3.60488256
H    1.82309075  -0.03537336   4.73754238
Na  -0.73998252   1.03938027  -0.33273659
