46
Energy:   -671.59727944
O    2.63512949  -1.76370904  -0.70914527
H    3.36580453  -1.92139139  -1.30704335
H    2.11344395  -1.08719587  -1.14089283
O   -0.91320147  -1.17692391   0.96193404
H   -1.64649818  -1.36282441   0.37546257
H   -0.34973538  -1.94766474   0.89340391
O   -1.38717046  -0.25870656  -2.91630689
H   -1.54954678  -1.11752089  -2.52604579
H   -1.60700885  -0.36997347  -3.84125154
O    0.57183160  -3.36534387   0.11480257
H    1.36143490  -2.91785055  -0.18934908
H    0.88994166  -4.18946904   0.48338845
O    0.95498902   0.24158296  -1.54736655
H    0.20858553   0.08142523  -2.12482926
H    1.14827695   1.17256052  -1.65760448
O    0.95757595   2.90571915  -0.45410813
H    0.47368547   3.68488785  -0.76582823
C    2.27536350   3.31881083  -0.12956998
H    2.80643164   2.42916173   0.21968110
H    2.29951080   4.06910259   0.67619458
H    2.82011535   3.72296871  -0.99714082
O   -0.73122655   1.80061311   2.69127371
H   -1.29236449   1.39514697   3.36887588
C   -0.34519296   3.08188120   3.16229803
H    0.28620396   3.52446829   2.38709495
H    0.24067005   3.03384707   4.09355233
H   -1.20417999   3.75122425   3.32630566
O   -1.64094659  -2.60584216  -1.52686124
H   -0.90484002  -3.05172566  -1.08216100
C   -2.64267408  -3.57773749  -1.78082045
H   -3.46420328  -3.05861715  -2.28190832
H   -3.03783539  -4.03208946  -0.85876343
H   -2.29378746  -4.38475406  -2.44397934
O   -1.86044068   1.39621560  -0.67670742
H   -1.95988537   0.96861911  -1.54024391
C   -3.12590538   1.92067003  -0.30781660
H   -2.99584872   2.39866965   0.66690738
H   -3.89614673   1.14028983  -0.20528699
H   -3.49352543   2.68101725  -1.01457323
O    2.11037805   0.06862234   1.40064475
H    2.54958992  -0.61783490   0.87691517
C    2.51274833  -0.09672109   2.75093860
H    2.00895151   0.68436688   3.32676457
H    3.59863362   0.02408126   2.88891414
H    2.21606999  -1.07240290   3.16663596
Na   0.04814032   0.93321293   0.65358462
