46
Energy:   -671.79184363
O    2.31899493  -1.61904258  -1.92568721
H    1.59168306  -2.24079468  -1.89973323
H    2.82231514  -1.87067322  -2.70001443
O    0.39779692  -2.81982483   1.19204034
H    0.36813107  -3.37001360   1.97475619
H    1.29957327  -2.50075685   1.15701335
O    2.90305599  -1.77241120   0.74999409
H    2.82317458  -1.70569256  -0.20153070
H    3.77659390  -2.13689619   0.89252151
O    0.25183089  -3.32756220  -1.51423730
H    0.07172058  -4.24968526  -1.69721593
H    0.19245644  -3.25588794  -0.56157297
O   -1.08079763  -0.48637263   1.11564930
H   -1.83571055  -0.68030404   0.56001548
H   -0.62298319  -1.32284556   1.19902093
O   -0.35755906   3.34324617   1.95554878
H   -0.18838480   4.28541747   2.10426521
C   -1.22963873   2.89542545   2.98095965
H   -1.40970618   1.83255905   2.79826886
H   -2.20145425   3.41331309   2.96894679
H   -0.79270377   2.99975613   3.98643480
O   -2.10238257   1.93665767  -0.55454722
H   -2.63184154   1.14333086  -0.72404366
C   -2.94328891   3.06362726  -0.74256282
H   -2.33112940   3.94837192  -0.54769666
H   -3.79632066   3.07859192  -0.04622223
H   -3.33227804   3.13722774  -1.77020466
O   -3.21141437  -0.70264758  -0.71880649
H   -4.09976129  -1.08645268  -0.67457227
C   -2.56727701  -1.23906964  -1.86330298
H   -1.56815122  -0.79631082  -1.89790772
H   -3.08578379  -0.98533938  -2.80114572
H   -2.45420349  -2.33339437  -1.81385488
O    0.85823634   0.76686653  -1.52450916
H    1.41472927   0.00557482  -1.74626087
C    0.64457141   1.50562463  -2.71661550
H    0.01609781   2.35930857  -2.44879119
H    0.11835255   0.92336848  -3.48917541
H    1.57982737   1.89296279  -3.15025452
O    1.95025141   0.77122921   1.52552653
H    2.39548884  -0.06740311   1.33347773
C    2.66134067   1.40522804   2.57668367
H    2.14650421   2.34808694   2.78026585
H    3.70339394   1.63679820   2.30598535
H    2.66696236   0.81207566   3.50453925
Na  -0.03706913   1.51022514   0.51636810
