46
Energy:   -673.30011981
O    0.51402813  -1.17270383   2.62490645
H    0.74484519  -1.21914775   3.55269861
H    1.35286172  -1.07987122   2.17327368
O   -0.80731264  -2.94685634   0.96751528
H   -0.42890470  -2.36665100   1.62812186
H   -1.18917745  -3.66626440   1.47037028
O    1.33059062  -2.83549713  -0.75870784
H    0.56173125  -3.00426866  -0.21409488
H    1.43767708  -3.63335553  -1.27657491
O    2.82637521   1.13851104  -0.73460052
H    3.72922109   1.30009253  -1.00844824
H    2.90117005   0.49841146  -0.02685049
O    0.72549743  -0.33715102  -1.78986618
H    1.53314496   0.14062392  -1.60100533
H    0.92576844  -1.24561245  -1.56443058
O    2.75330970  -1.11893768   0.95508697
H    2.44222048  -1.80232802   0.34302127
C    4.00478188  -1.54176903   1.47235363
H    4.34069699  -0.76065499   2.15974515
H    4.77037602  -1.66005909   0.68963376
H    3.93512615  -2.48544838   2.03573156
O   -0.84065019   0.90298164   1.27512055
H   -0.44527043   0.25376945   1.87563838
C   -0.91108172   2.14054013   1.96506415
H   -1.35871056   2.86027035   1.27433842
H    0.07986099   2.52045413   2.25913086
H   -1.54494661   2.09063753   2.86423174
O   -2.19730120  -1.16507895  -0.76199243
H   -1.87127375  -1.85884990  -0.16969923
C   -3.18542158  -1.74350739  -1.59959163
H   -3.54187076  -0.94849732  -2.26018846
H   -4.04803441  -2.13055302  -1.03490401
H   -2.78798725  -2.55640208  -2.22730615
O    0.45084421   2.67738193  -1.16015956
H    1.36598120   2.41011596  -0.98835598
C    0.46294575   4.05090659  -1.51486695
H   -0.57551004   4.33543922  -1.70496156
H    1.04399428   4.24887649  -2.42917972
H    0.85141313   4.69451672  -0.71010835
O   -3.00890343   2.14664521  -1.63569006
H   -3.37440009   2.74958007  -2.29999798
C   -3.99783233   1.95651849  -0.63648776
H   -3.56968493   1.27503258   0.10361492
H   -4.91809083   1.49782186  -1.03082141
H   -4.26855940   2.89217726  -0.12265234
Na  -1.10866268   0.90386867  -1.05919691
