24
Energy:    -71.14279669
C   -1.82137288   0.04095557   2.15996850
H   -2.43070119   0.52512607   2.89426961
H   -0.89284115  -0.25184683   2.60380932
H   -2.32892220  -0.82546391   1.79036052
C   -1.55029510   1.01252668   0.99628193
N   -1.34846537   1.73590553   0.12986439
C    0.92172070  -2.32813432   0.49352256
H    1.47464985  -3.24318526   0.45049574
H   -0.12120859  -2.53568452   0.37469283
H    1.08594193  -1.85633107   1.43974249
C    1.39059962  -1.39147018  -0.63537640
N    1.73970130  -0.69408116  -1.47589298
C    2.04551269   2.23828100   0.39092618
H    2.29227167   3.21487115   0.75187199
H    1.11372692   2.27682221  -0.13365838
H    2.81392904   1.89815485  -0.27145559
C    1.92549384   1.26677637   1.57978034
N    1.83613436   0.54344702   2.46493631
C   -1.15947678   0.06891000  -3.01649251
H   -1.00187729   1.01530933  -2.54279335
H   -1.84580739   0.18658429  -3.82889767
H   -0.22770359  -0.30361801  -3.38786926
C   -1.73955711  -0.92640047  -1.99450236
N   -2.17145328  -1.66745435  -1.23358423
