24
Energy:    -71.42956221
C    2.34406288   1.37057395   1.72353488
H    2.90708804   0.79124345   2.42516087
H    1.30270189   1.30393681   1.96023275
H    2.65637528   2.39278277   1.77302402
C    2.58301292   0.82906692   0.30182007
N    2.76092209   0.42589032  -0.75671123
C   -2.83680534  -0.57107460   1.74872856
H   -3.28108114  -0.18957262   2.64425938
H   -3.34957083  -1.46043940   1.44706502
H   -2.90976205   0.16299028   0.97366395
C   -1.35437555  -0.89663706   2.00951776
N   -0.25063919  -1.13903310   2.20368717
C   -0.29348669   1.65711922  -2.52874449
H   -0.27561922   2.60594719  -3.02301811
H   -1.02122960   1.02597241  -2.99451594
H    0.67163187   1.20040895  -2.59846520
C   -0.66084666   1.85721757  -1.04664891
N   -0.93436285   2.00619988   0.05683862
C    0.79630120  -2.42712103  -0.93470236
H    1.49345253  -2.17255587  -1.70546612
H    0.72636129  -3.49181344  -0.85446785
H    1.13035285  -2.02041498  -0.00309151
C   -0.58720153  -1.84649503  -1.28168025
N   -1.61728219  -1.41419258  -1.54002107
