24
Energy:    -71.31110966
C    2.27370763   1.99120555   0.63631438
H    2.74324736   2.95112247   0.69101468
H    2.10557663   1.73428520  -0.38868464
H    2.90797764   1.25761859   1.08847677
C    0.92702730   2.03523290   1.38204467
N   -0.07563742   2.06801327   1.93727478
C   -2.69703241   1.31341278  -1.07927551
H   -2.89718547   0.52617409  -0.38278848
H   -3.30879963   1.18537158  -1.94774854
H   -2.91661217   2.25660682  -0.62422736
C   -1.21244079   1.27323719  -1.48667413
N   -0.10709484   1.24332464  -1.79000092
C   -0.69345291  -1.50620363   2.44921566
H   -0.85689230  -0.49597513   2.76166746
H    0.35756195  -1.70457324   2.41894449
H   -1.16265572  -2.17391972   3.14124387
C   -1.29559788  -1.71366189   1.04708068
N   -1.74392218  -1.86812399   0.00312745
C    1.05092874  -1.76846318  -2.11700583
H    1.32303576  -2.70197763  -2.56355787
H    1.38617275  -0.96460703  -2.73855699
H   -0.01289916  -1.71935519  -2.01328649
C    1.70791536  -1.65253072  -0.72901150
N    2.19707176  -1.56621374   0.30441336
