24
Energy:    -71.91865877
C    1.52800926   1.32062850  -1.65927109
H    0.50526757   1.42594242  -1.95559626
H    1.89999747   0.37404237  -1.99168432
H    2.10874695   2.10564515  -2.09675445
C    1.62877983   1.40159461  -0.12470608
N    1.70380810   1.46187755   1.01784733
C    1.82782237  -1.99268624   1.77710796
H    2.70414109  -1.49236914   2.13298502
H    1.80014354  -2.98716384   2.17099535
H    0.95755491  -1.45826261   2.09636495
C    1.85894994  -2.05063516   0.23851347
N    1.88212584  -2.09378076  -0.90704006
C   -1.83077434   2.11168588   1.78780556
H   -2.70944902   2.57544657   2.18499193
H   -0.96456360   2.64306814   2.12278458
H   -1.77945397   1.09742457   2.12476148
C   -1.88669865   2.13920210   0.24906733
N   -1.92833684   2.15968917  -0.89659322
C   -1.55955533  -1.51820438  -1.90104208
H   -1.89755011  -2.50517356  -2.13884781
H   -0.57444551  -1.37440363  -2.29318883
H   -2.22404657  -0.79973577  -2.33365430
C   -1.53454655  -1.33872955  -0.37174049
N   -1.51592637  -1.20510238   0.76689405
