24
Energy:    -70.99812714
C   -1.30095719  -1.74047978   1.98325206
H   -0.57869521  -2.43823839   2.35253615
H   -2.27770379  -2.03270808   2.30801010
H   -1.07765295  -0.76370231   2.35867195
C   -1.25608066  -1.72146801   0.44402347
N   -1.22266805  -1.70731288  -0.70200218
C   -2.03956941   1.69694175  -1.50518923
H   -3.02927944   1.89241976  -1.86178787
H   -1.71382636   0.74235435  -1.86233550
H   -1.37556658   2.45660165  -1.86144219
C   -2.03962101   1.69614942   0.03481056
N   -2.03965943   1.69555950   1.18141041
C    1.52768840   1.51433647   1.80222637
H    2.45436677   1.89417057   2.17891383
H    1.44233788   0.47599587   2.04607710
H    0.71548894   2.05250586   2.24449873
C    1.48576522   1.68753226   0.27257097
N    1.45455150   1.81648440  -0.86632701
C    1.67702124  -1.50581369  -2.26560904
H    1.06290383  -0.64340041  -2.42053913
H    1.13408106  -2.38490643  -2.54365761
H    2.55986654  -1.42735319  -2.86504813
C    2.07168267  -1.59473235  -0.77969658
N    2.36552604  -1.66093633   0.32663279
