24
Energy:    -70.88303507
C    1.92161258   0.15896523   2.22793929
H    2.83031536   0.60027379   2.58065191
H    1.85912233  -0.85223408   2.57213403
H    1.08689345   0.71489727   2.60087713
C    1.90507064   0.17905537   0.68815919
N    1.89275441   0.19401339  -0.45827708
C    0.18195306  -2.73761807  -1.62413089
H   -0.15395854  -1.78629897  -1.98057941
H   -0.46008170  -3.50646287  -2.00038630
H    1.18244242  -2.91178674  -1.96115522
C    0.14950792  -2.74957200  -0.08451912
N    0.12535104  -2.75847224   1.06179183
C   -2.08598494  -0.02622202   1.48770849
H   -1.70486527  -0.94849721   1.87378678
H   -3.07369898   0.13745342   1.86524050
H   -1.44972917   0.77817551   1.79270405
C   -2.12867527  -0.09213670  -0.05028786
N   -2.16046015  -0.14121318  -1.19539606
C    0.12972281   2.54373153  -2.07278541
H    1.07873449   2.05522797  -2.14789378
H    0.17065244   3.48301951  -2.58362977
H   -0.62432623   1.92844735  -2.51745890
C   -0.20978635   2.78048866  -0.58945147
N   -0.46256635   2.95676510   0.51495808
