24
Energy:    -74.50574907
C   -1.47067421  -2.07476570   1.87554584
H   -1.72530281  -2.52250600   0.93767961
H   -2.15255951  -2.41137426   2.62829163
H   -0.47411817  -2.35532801   2.14584187
C   -1.55709016  -0.54208696   1.75295648
N   -1.62143076   0.59906203   1.66168312
C   -1.83009711   1.78435071  -1.69769670
H   -1.14822938   2.27560438  -2.35998546
H   -1.66629298   2.12818609  -0.69777444
H   -2.83481677   2.00644982  -1.99114087
C   -1.60118676   0.26278733  -1.76129642
N   -1.43075260  -0.87008578  -1.80864930
C    1.51865686   1.81266772   1.81602069
H    2.41960960   2.29782308   2.12876436
H    1.53592225   0.79045607   2.13174896
H    0.67682234   2.30705596   2.25396363
C    1.40872133   1.87407794   0.28117771
N    1.32686934   1.91980064  -0.86158265
C    1.77181185  -1.54909759  -1.93202031
H    2.71244488  -1.91647315  -2.28577852
H    1.61927847  -0.55338664  -2.29284210
H    0.98538047  -2.18163979  -2.28742874
C    1.76941077  -1.54304293  -0.39203408
N    1.76762306  -1.53853495   0.75455566
