24
Energy:    -71.08331419
C    2.76250105   0.50533171  -1.16215417
H    2.02911958  -0.24849304  -1.35913141
H    3.61091516   0.06141149  -0.68463200
H    3.06710483   0.95602012  -2.08356374
C    2.15853723   1.58053663  -0.23978652
N    1.70885871   2.38107557   0.44695812
C    0.45023559  -0.02316627   2.57071658
H    0.61037009  -0.72233851   3.36470355
H    0.54619546   0.97340055   2.94826840
H    1.17626242  -0.18459643   1.80148031
C   -0.96328731  -0.21885374   1.99170066
N   -2.01571936  -0.36455196   1.56059699
C   -1.38293693  -2.94017368  -0.86288032
H   -1.40668957  -2.60322266  -1.87816353
H   -2.09055380  -2.38273805  -0.28543512
H   -1.63279746  -3.97994534  -0.82622368
C    0.02930336  -2.73092760  -0.28547800
N    1.08078046  -2.57513438   0.14442427
C   -1.82493292   2.49856537  -0.60360493
H   -2.75708123   2.22007518  -0.15813561
H   -1.98430727   3.30301801  -1.29088570
H   -1.14403960   2.81156633   0.16014489
C   -1.23393256   1.29108307  -1.35480735
N   -0.79390594   0.39205762  -1.91411170
