24
Energy:    -71.59086418
C   -1.36769698  -1.86001224   2.14148960
H   -1.83326854  -1.09455642   2.72648591
H   -0.30647379  -1.81057006   2.26900390
H   -1.72111313  -2.81797779   2.46133037
C   -1.71633563  -1.65410155   0.65567269
N   -1.97591294  -1.50079168  -0.45058553
C   -2.00443714   1.76854219  -1.81584893
H   -2.38473594   2.76551549  -1.89533000
H   -2.30908098   1.34398065  -0.88212589
H   -2.38809234   1.17533597  -2.61947457
C   -0.46645236   1.79847071  -1.88869876
N    0.67864721   1.82075386  -1.94293877
C    2.03402321   1.64315412   1.64487911
H    2.28744985   2.55965885   2.13548506
H    2.37528352   1.67498145   0.63125812
H    2.50121154   0.82556928   2.15300230
C    0.50571387   1.45497553   1.66631226
N   -0.63218190   1.31486801   1.68227022
C    1.36974445  -1.56047668  -1.96463500
H    2.23621694  -1.17594973  -2.46088557
H    0.52835158  -0.93572614  -2.18060698
H    1.17348907  -2.55452206  -2.30851973
C    1.61611002  -1.58239958  -0.44462731
N    1.79954038  -1.59872218   0.68708751
