24
Energy:    -71.99541638
C    1.03436677  -2.38058007  -1.01690883
H    1.81482403  -2.20882284  -1.72844668
H    0.82998009  -3.42921711  -0.95787040
H    1.34203001  -2.02255175  -0.05667024
C   -0.23755156  -1.63382045  -1.45982398
N   -1.18455257  -1.07782397  -1.78959444
C   -2.78769185  -0.46667353   1.54253503
H   -3.57913210  -0.97617739   2.05138503
H   -2.95265792  -0.51608747   0.48648411
H   -2.76532924   0.55719848   1.85251101
C   -1.44336476  -1.13586121   1.88396221
N   -0.44245214  -1.63410185   2.13817027
C    2.46038320   0.63166545   1.53841653
H    1.52278726   0.97802956   1.92031433
H    3.24475119   1.27226620   1.88380997
H    2.63817859  -0.36636884   1.88078395
C    2.42502440   0.64759717  -0.00109506
N    2.39869817   0.65945905  -1.14733142
C   -0.71914827   2.19452022  -2.02942618
H    0.18691197   1.75762567  -2.39422499
H   -0.78679081   3.20818860  -2.36528329
H   -1.55641280   1.63986455  -2.39853901
C   -0.72080798   2.16268657  -0.48975613
N   -0.72204371   2.13898496   0.65659821
