49
Energy:   -881.24804088
O   -2.44158396  -1.25083431  -2.55098746
H   -3.10187202  -1.48461610  -3.20336588
H   -2.03807923  -2.08429659  -2.30859027
O   -2.17004044  -0.98796053   2.84200793
H   -1.28515617  -0.86583497   3.18595129
H   -2.68207811  -1.28135189   3.59564629
O   -1.03649819   2.57558361  -2.66982025
H   -0.57939134   1.75570965  -2.85714849
H   -1.13271385   2.99723261  -3.52374444
O    3.23278103   1.65956266  -0.24582445
H    4.01334897   2.14680649  -0.50952694
H    2.50078521   2.19667649  -0.54901202
O    0.47627276  -0.59362065   3.17550555
H    1.04626045  -1.33554410   2.97327922
H    1.04480923   0.17289865   3.10170656
O   -2.46503300   1.00360588  -0.85369167
H   -2.72376930   0.24402055  -1.37553217
H   -2.21722811   1.66527058  -1.49946593
O   -0.14945187   3.65982833   1.86812073
H   -0.37444041   4.44875934   2.36127370
H   -0.89809746   3.07671898   1.99360028
O   -1.98514425   1.59188648   1.79803901
H   -2.24986642   0.82108667   2.30005660
H   -2.48460190   1.53109540   0.98374279
O   -0.01152718   0.01910628  -2.48460104
H   -0.85577412  -0.40796289  -2.62982798
H    0.63649066  -0.65857911  -2.67707763
O   -0.85697918  -3.36010607  -1.72658758
H   -0.87544782  -3.07935217  -0.81167337
H   -1.10610477  -4.28391282  -1.69921279
O    1.71812598  -2.70565304   1.90502504
H    2.37966654  -3.34000359   2.18106002
H    2.14625731  -2.19655276   1.21672836
O    0.77138210   2.83223279  -0.61512038
H    0.16352045   2.98860166  -1.33781315
H    0.43243183   3.36619841   0.10336781
O   -0.78378969  -2.27012402   0.76596067
H   -1.41257528  -2.05416085   1.45459732
H   -0.01204955  -2.58581926   1.23605163
O    1.57401853  -2.23298191  -2.51727730
H    0.80601117  -2.76407542  -2.30671559
H    2.02908165  -2.72846931  -3.19818966
O    1.73347330   1.60230969   2.14083204
H    1.29179427   2.44917883   2.20379346
H    2.45845976   1.75424123   1.53457855
O    2.34107152  -0.99508476  -0.14820748
H    2.87423050  -0.21219536  -0.28625653
H    2.28747051  -1.40429353  -1.01186654
K    0.00050630   0.34479879   0.34184222
