49
Energy:   -881.82457995
O   -1.71030379  -2.66023345  -1.66433367
H   -2.33853859  -3.36436051  -1.82482651
H   -2.19078142  -2.02679755  -1.13129329
O   -2.54822649   0.33431694   2.58111521
H   -1.63980150   0.22728413   2.86314333
H   -3.04976111   0.37003172   3.39562078
O   -1.03205487   1.24721353  -2.44714921
H   -0.32695221   1.86195328  -2.65002140
H   -0.84661014   0.48145051  -2.99070151
O    2.76445778  -0.19534323   0.50783287
H    2.77721562  -0.15211288  -0.44830531
H    2.96690605  -1.10889883   0.70948283
O    0.17107432   0.09209234   2.76716533
H    0.90072089   0.70199121   2.87611995
H    0.53030515  -0.75905799   3.01762127
O   -3.43456476   1.74564130  -1.26343791
H   -2.69074102   1.68377920  -1.86271345
H   -4.11771406   2.18137225  -1.77302346
O    0.92962651   2.87461867   0.17813868
H    1.46233428   2.75992267   0.96509427
H    0.05054498   3.06012773   0.50834150
O   -1.72043759   2.33914032   0.83785882
H   -2.40303388   2.36245508   0.16722436
H   -2.11842881   1.86672143   1.56906005
O   -0.25396004  -1.18546779  -3.50226266
H   -0.27418715  -1.55861686  -4.38350183
H   -0.77202597  -1.79182031  -2.97294596
O    2.94683751  -2.86877150   1.09469230
H    2.48875053  -2.86398014   1.93514765
H    3.70207459  -3.43956628   1.23626246
O    0.92861365  -2.55444876   2.99096709
H    0.52615622  -3.20224164   3.56943425
H    0.46558944  -2.65487906   2.15924948
O    1.31564555   2.70487721  -2.54062482
H    1.70256230   3.45770163  -2.98759536
H    1.28826869   2.96113631  -1.61877145
O   -2.64067796  -0.62092187  -0.06216096
H   -3.09368357   0.10359156  -0.49355179
H   -2.80382863  -0.48431843   0.87108778
O    0.20521545  -2.44398971   0.32910338
H   -0.36048807  -2.78008600  -0.36605895
H    1.07160133  -2.79583409   0.12462136
O    2.32589522   1.79521386   2.32773647
H    3.07457076   2.12980189   2.82146477
H    2.69854902   1.13189240   1.74690463
O    1.84312523   0.01520395  -2.07556512
H    1.85450394   0.91065455  -2.41360447
H    1.32847175  -0.47641848  -2.71562061
K   -0.00237531   0.28187925   0.00600083
