49
Energy:   -888.83120224
O   -1.69643175  -1.71380979   0.27851835
H   -2.52122994  -1.28161012   0.05683558
H   -1.78018117  -1.92863034   1.20753396
O   -1.70045054   0.59782997   3.40616322
H   -0.78157122   0.65702048   3.14465004
H   -1.76466517   1.15158563   4.18427825
O   -1.63731349   0.65228780  -2.58282425
H   -1.28358182   1.49812542  -2.85789600
H   -1.27648735   0.02579409  -3.21015350
O    2.83668849   0.15205547  -0.31501237
H    2.76257535   0.26688917  -1.26240475
H    2.93017730  -0.79290092  -0.19439269
O    0.75434731   0.44221877   2.26377709
H    1.47937511   1.06095743   2.17586230
H    1.17138367  -0.38212275   2.51432363
O   -3.57726108   0.11600476  -0.70184198
H   -3.07735531   0.30898192  -1.49499133
H   -4.49224873   0.14794882  -0.98114294
O    0.34097861   2.99717111  -0.22109284
H    1.07058386   3.02829732   0.39772796
H   -0.44001834   2.95427933   0.33066427
O   -1.92913580   1.69881868   0.87223600
H   -2.67616479   1.31998956   0.40891318
H   -2.03293162   1.40354166   1.77681864
O   -0.07667984  -1.18816276  -3.96317672
H   -0.08477264  -1.76014630  -4.73064085
H    0.06643174  -1.77978438  -3.22443808
O    2.43284909  -2.55517966   0.27211866
H    3.07433061  -3.26561565   0.27586300
H    2.07787473  -2.54767066   1.16103298
O    1.27254322  -2.23859475   2.76841100
H    1.63284294  -2.63009664   3.56411335
H    0.32441343  -2.32739864   2.86534203
O   -0.02654042   2.90648171  -2.94285140
H   -0.03417352   3.72912206  -3.43217383
H    0.11246484   3.16966590  -2.03310228
O   -1.50654691  -2.11289156   3.00501583
H   -1.69192133  -1.20826873   3.25705889
H   -2.12281487  -2.63595562   3.51770446
O    0.32458271  -2.30495164  -1.49608186
H    1.06841493  -2.58505083  -0.96270591
H   -0.43954138  -2.45314524  -0.93895990
O    2.57067468   2.30518770   1.36380213
H    3.35039486   2.80131170   1.61305957
H    2.89325110   1.64150248   0.75413154
O    1.60570274   0.65554011  -2.74574031
H    1.24165012   1.50354714  -2.99986943
H    1.20453320   0.03124108  -3.35034396
K    0.06486437   0.27602604  -0.44083729
