49
Energy:   -882.60433103
O   -1.14494975  -3.59945945   0.68469977
H   -1.56215852  -4.46095156   0.68490705
H   -1.85193923  -2.99047681   0.47130372
O   -2.53724153  -0.09223231   2.84839376
H   -1.72537948  -0.57497265   3.00355051
H   -2.97197775  -0.07347953   3.70096904
O   -1.11031750   0.96035047  -2.15926727
H   -0.56495697   1.74510966  -2.21373521
H   -0.81260559   0.41043758  -2.88397085
O    3.53560667   0.57108639   1.34278464
H    4.40879362   0.96225955   1.31521740
H    3.20214806   0.66531148   0.45050730
O   -0.28325666  -1.65784664   2.50045582
H    0.66543741  -1.72107553   2.61097058
H   -0.53554997  -2.49417640   2.10913438
O   -3.64038860   0.81706758  -1.12135568
H   -2.87015515   0.91327553  -1.68145952
H   -4.37771588   1.05163804  -1.68487766
O   -0.07054561   3.72287985   0.70207463
H   -0.26230675   4.56659302   1.11147370
H   -0.86960001   3.21005682   0.82355075
O   -2.09044654   1.88087919   0.92880774
H   -2.78864083   1.68378387   0.30437999
H   -2.33631173   1.40467461   1.72191010
O   -0.03275998  -0.68960802  -4.00667057
H   -0.08320055  -1.00705752  -4.90828768
H    0.79784546  -1.03302557  -3.67744293
O    1.14338672  -2.40728756  -0.33789737
H    1.70603115  -2.38418330   0.43613705
H    0.44446431  -3.01969826  -0.10834900
O    2.47552481  -1.88221679   2.03369711
H    2.92022469  -1.04684331   1.89008300
H    3.08034240  -2.38544967   2.57884315
O    0.74650888   2.98211490  -1.82086898
H    0.95824189   3.73295067  -2.37552799
H    0.50254513   3.36684998  -0.97903025
O   -2.70305762  -1.33622412   0.36403885
H   -3.21864089  -0.77170319  -0.21191415
H   -2.89400670  -1.01752137   1.24619465
O    2.24387885  -1.49159956  -2.68302397
H    1.90285890  -1.97248437  -1.92891056
H    2.97706482  -2.02230551  -2.99450649
O    0.98931747   1.48026781   2.01038789
H    0.84219666   2.38647904   1.73952166
H    1.94019939   1.37349755   1.98478419
O    2.13758294   0.71661059  -1.00676709
H    1.83111910   1.51340826  -1.43969346
H    2.28246125   0.09599008  -1.72096056
K   -0.23618077  -0.07661812   0.21784226
