49
Energy:   -883.66579917
O   -1.35692117  -3.23567168   0.88764531
H   -1.92813582  -3.96082464   0.63446778
H   -1.86948795  -2.44946102   0.69954972
O   -2.51794213   1.01668656   2.47338028
H   -1.60873071   0.81424755   2.69380009
H   -2.91887265   1.25945793   3.30797517
O   -0.93387658   0.34166401  -2.91500751
H   -0.49860816   1.08370086  -3.33471520
H   -0.40469053  -0.41721418  -3.16056376
O    2.85867163   0.39385051   2.54773102
H    3.55362330   0.53929617   3.18969643
H    2.93986620  -0.53014143   2.31134533
O    0.09062266   0.10809588   2.45253741
H    0.98687637   0.38529169   2.64259957
H    0.05134675  -0.79979927   2.75322936
O   -3.38568237   0.74621602  -1.72311130
H   -4.15387684   0.82174380  -2.28915429
H   -2.65644125   0.60217371  -2.32617933
O    0.22171782   3.38579138  -1.11952830
H    0.90605987   3.37523096  -0.45035248
H   -0.59669505   3.43065659  -0.62514047
O   -2.06420265   2.41092374   0.11698120
H   -2.71675267   2.06605346  -0.49250613
H   -2.38387997   2.15359944   0.98174849
O    1.03587219  -1.64754995  -3.01600866
H    1.33929911  -2.37618788  -3.55753494
H    1.01926687  -2.00038338  -2.12636565
O    2.56912705  -2.27262629   1.84378786
H    1.82095535  -2.49692875   2.39710454
H    3.18279318  -2.99721870   1.96466622
O    0.13253480  -2.58606707   3.09923922
H   -0.15464625  -3.01279746   3.90649387
H   -0.44928608  -2.93428196   2.42361900
O    0.67045882   2.47831187  -3.63430120
H    0.82014301   3.12887725  -4.32029768
H    0.49964100   2.99491406  -2.84678910
O   -2.40498479  -0.77801203   0.36039191
H   -2.92543220  -0.40067765  -0.34882252
H   -2.63436915  -0.25692918   1.12986402
O    0.82980683  -2.04665279  -0.30748180
H    0.11403729  -2.58593089   0.02879924
H    1.53630253  -2.16216713   0.32793311
O    2.15686855   2.03541475   0.43884960
H    2.58045759   1.58944392   1.17227594
H    2.59973464   1.69372430  -0.33790591
O    2.15321557   0.72399169  -2.06353846
H    2.02888174  -0.11795126  -2.50160811
H    1.86430646   1.37318725  -2.70487184
K   -0.03289492   0.59362667  -0.31470199
