49
Energy:   -881.37792785
O   -1.01728351  -3.15984285  -0.21685636
H   -1.83670455  -2.78133377   0.10175293
H   -0.53214791  -3.38475626   0.57705123
O   -2.25312946  -0.03001085   3.04762025
H   -1.41136569  -0.37007539   3.35097107
H   -2.80099928  -0.01069908   3.83228423
O   -1.21590227   1.19209804  -2.35649294
H   -0.73875014   2.00988002  -2.21581484
H   -0.79025535   0.79341357  -3.11551022
O    3.68269329   0.15096698   0.15034241
H    4.60743621   0.35607852   0.01245969
H    3.25032310   0.44020016  -0.65316990
O    0.32794188  -0.89068016   3.54626380
H    0.78353889  -0.28916568   2.95732956
H    0.76961988  -0.78244461   4.38854491
O   -3.55925365   1.08307214  -0.90206030
H   -2.90858921   1.15139697  -1.60077293
H   -4.37412018   1.38620487  -1.30247875
O    0.55483054   3.28341990   1.06951015
H    0.49033907   4.02394279   1.67258440
H   -0.30734974   2.86915924   1.10507868
O   -1.61704976   1.68383443   0.97659339
H   -2.38194867   1.66120709   0.40157208
H   -1.89838909   1.22538266   1.76836482
O    0.53428393  -0.15788185  -4.05265164
H    0.66624652  -0.29968677  -4.99004648
H    0.49745036  -1.03860239  -3.67954781
O    2.08276452  -2.08663955  -0.19445798
H    1.88250810  -2.56962993   0.60732098
H    2.82738112  -1.53229441   0.03895033
O    0.71757493  -3.16154272   2.00793957
H    0.56865598  -2.46798894   2.65062000
H    0.88889630  -3.94298931   2.53350789
O    0.55394201   3.24558581  -1.67455256
H    0.73000250   4.09768784  -2.07349702
H    0.59555419   3.40857618  -0.73224984
O   -2.73271077  -1.15936775   0.55480158
H   -3.26704733  -0.52611794   0.07551987
H   -2.77527836  -0.86857015   1.46576624
O    0.47254631  -2.33997967  -2.43391850
H   -0.17017938  -2.91751432  -2.02210632
H    1.26180301  -2.44120696  -1.90188584
O    1.40518374   0.68885906   1.59200036
H    1.24992273   1.63004041   1.51260553
H    2.28519487   0.56010494   1.23811529
O    1.89608462   0.85238403  -1.83143880
H    1.58543333   1.75777208  -1.83177173
H    1.66512285   0.51909821  -2.69850804
K   -0.17299657  -0.47530970  -0.41055260
