49
Energy:   -881.80638066
O   -0.96123815  -2.81110199   0.27097589
H   -1.11838621  -3.43479166  -0.43792998
H   -1.80311498  -2.37321410   0.39639298
O   -2.70013075   0.29171332   3.02173804
H   -1.78354015   0.04415001   3.14341761
H   -3.06038857   0.32141848   3.90805839
O   -1.27476298   1.07706899  -2.28819873
H   -0.60922413   1.72459178  -2.52058663
H   -1.16281495   0.37659571  -2.93087802
O    2.58704930   0.08995202   0.47274993
H    2.85715913   0.43543210  -0.37808262
H    2.81545553  -0.83895042   0.43807005
O   -0.03563488  -0.34449986   2.71194202
H    0.64830572   0.29752189   2.90237621
H    0.40396316  -1.19178156   2.78335027
O   -3.72439620   1.20518413  -1.04415694
H   -2.99159389   1.22852093  -1.65953327
H   -4.47614514   1.50601496  -1.55465297
O    0.54722863   2.62892778   0.39023090
H    1.04009309   2.53616779   1.20552966
H   -0.36400880   2.71787572   0.66945565
O   -2.03698866   2.05303170   0.98703644
H   -2.74852752   1.96593988   0.35271845
H   -2.37698433   1.64999084   1.78590618
O   -0.74046989  -1.15594728  -3.72909495
H   -0.67641078  -1.65419533  -4.54388153
H    0.01161608  -1.44409797  -3.21182546
O    2.73538175  -2.64138324   0.20004059
H    2.19491520  -2.85867564   0.95958767
H    3.45693682  -3.26956430   0.23132457
O    0.91816445  -2.92737879   2.24443567
H    0.80869152  -3.64613164   2.86704458
H    0.19356312  -3.03161889   1.62773576
O    0.94183961   2.77697678  -2.30669482
H    0.96832833   3.66276975  -2.66849727
H    0.84946301   2.90596644  -1.36273504
O   -2.90163342  -0.93485310   0.54074199
H   -3.39913240  -0.34033306  -0.02074936
H   -3.05193422  -0.60894324   1.42811130
O    1.27481583  -1.43212916  -1.87550567
H    1.89680133  -0.74884022  -2.12546988
H    1.77898994  -2.02238723  -1.31547378
O    1.91543936   1.61828657   2.61279877
H    2.61555547   1.98198027   3.15482844
H    2.37106082   1.11272661   1.93970884
O    2.85850176   0.81389293  -2.19021123
H    2.26454387   1.54969038  -2.33869687
H    3.61390646   0.99887027  -2.74822464
K   -0.27568632  -0.03213111  -0.00621352
