49
Energy:   -885.98591477
O   -0.98806079  -3.38728944   0.49843894
H   -1.53225068  -4.16495136   0.37461992
H   -1.61386598  -2.67023242   0.60056110
O   -2.26415866   0.10230641   3.17546989
H   -1.31374154  -0.00954009   3.15474527
H   -2.49107205   0.05586150   4.10422445
O   -1.73328660   0.85418685  -2.50768586
H   -1.28462488   1.69960489  -2.52192849
H   -1.23770428   0.30916671  -3.11890027
O    2.47851730   0.55139433  -0.21812930
H    2.61023313   0.81526379  -1.12876407
H    2.79094282  -0.35268722  -0.18265116
O    0.36070426  -0.22067976   2.43525250
H    1.09326709   0.37489803   2.59295683
H    0.75544401  -1.09269109   2.43818943
O   -3.82153718   0.85963483  -0.71944267
H   -3.26444211   0.88866051  -1.49728227
H   -4.70334714   1.03251090  -1.04922580
O    0.42862805   3.12800591   0.78423942
H    1.03063548   2.90694789   1.49483935
H   -0.43070175   3.17419432   1.20334654
O   -2.17193950   2.08185548   1.23715171
H   -2.91937416   1.92436456   0.66028959
H   -2.36413361   1.57140887   2.02375042
O    0.34635507  -0.59490116  -3.71824906
H    0.29678083  -1.17201227  -4.48029696
H    0.38576708  -1.18943938  -2.96911433
O    2.88205410  -2.17182860  -0.04374473
H    2.45803344  -2.47371247   0.75956372
H    3.64989240  -2.73581402  -0.13635492
O    1.22671246  -2.82823246   2.06280248
H    1.34481462  -3.45788636   2.77401251
H    0.44760266  -3.13409279   1.59840048
O    0.14229080   2.74221995  -1.93694211
H    0.98851408   2.49978911  -2.31292789
H    0.36280933   3.21317620  -1.13332302
O   -2.41386079  -1.07389325   0.68234974
H   -3.07446553  -0.58188037   0.19474687
H   -2.51837879  -0.78323969   1.58834551
O    0.44897430  -1.84089250  -1.28474862
H   -0.09114786  -2.49024586  -0.83437088
H    1.34168853  -2.02857975  -0.99480613
O    2.32426027   1.70846135   2.28395701
H    3.12443474   2.05736126   2.67666749
H    2.59438915   1.40676944   1.41663687
O    2.28011451   1.23151779  -2.89885191
H    2.88478805   1.49410350  -3.59286236
H    1.67872015   0.61966019  -3.32333623
K   -0.30040633   0.59544257  -0.13514526
