49
Energy:   -883.09908982
O   -1.10164293  -4.00620567  -0.40918876
H   -1.61141488  -4.76155884  -0.70211535
H   -1.74175928  -3.29824241  -0.33658756
O   -0.38252706   0.79295863   3.69157279
H    0.40473737   0.99456186   3.18580337
H   -0.15213289   1.01625976   4.59339704
O   -1.33724074   1.28629541  -2.09565267
H   -0.87837917   2.12601307  -2.07215464
H   -0.94320115   0.81800556  -2.83163450
O    3.69666837   0.47022703   0.28590681
H    4.61388590   0.68764598   0.11955525
H    3.24720717   0.68426299  -0.53165364
O   -0.98854346  -1.41955715   2.19556471
H   -0.78839041  -0.83120751   2.92358621
H   -0.42509279  -2.17983723   2.33954175
O   -3.54559193   0.86808209  -0.47377478
H   -2.94297643   1.08688976  -1.18455576
H   -4.40485277   1.14153604  -0.79490650
O    0.35715432   3.71005829   0.95920898
H    0.23573896   4.49075715   1.49957871
H   -0.42952657   3.18692339   1.11314048
O   -1.56885758   1.79944925   1.26683737
H   -2.43231692   1.58510313   0.91367231
H   -1.59197624   1.47878325   2.16843079
O    0.37259028  -0.19492656  -3.73215592
H    0.46459970  -0.41399699  -4.65939605
H    0.35938702  -1.04153116  -3.28570526
O    2.06977620  -1.83806014   0.17359968
H    1.94294271  -2.46870477   0.88242439
H    2.84315273  -1.33740471   0.43333942
O    0.61449024  -3.64915444   1.78867698
H    0.78105250  -4.45944172   2.27026123
H    0.06043378  -3.91559167   1.05501188
O    0.43093971   3.41268301  -1.75567830
H    0.55631794   4.23291222  -2.23289543
H    0.42930993   3.66937746  -0.83354103
O   -2.46367140  -1.65028980  -0.07318795
H   -3.05709558  -0.91374471  -0.22009243
H   -2.26592602  -1.61617994   0.86274214
O    0.39943958  -2.24343030  -1.94156955
H   -0.14220066  -2.96624578  -1.62471710
H    1.19028453  -2.28247461  -1.40372975
O    1.50925742   1.29545181   1.74274733
H    1.35899854   2.21190183   1.51085622
H    2.38163258   1.10111776   1.40007009
O    1.86014042   1.05204571  -1.72144297
H    1.53291822   1.94882684  -1.79173578
H    1.58658849   0.63215070  -2.53697308
K   -0.06987273  -0.13629428  -0.08648953
