49
Energy:   -887.94148596
O   -1.49008534  -3.63426893   0.66783442
H   -2.09350087  -4.36914790   0.77771824
H   -2.05191836  -2.85933100   0.67466949
O   -2.19609667   0.46626340   2.99298555
H   -1.34447962   0.30778396   3.40025022
H   -2.78511064   0.63842050   3.72759859
O   -1.13510158   0.75901406  -2.41989896
H   -0.64947543   1.57679418  -2.52776349
H   -0.73280533   0.15667730  -3.04566250
O    3.78433940   0.18847142   0.07663665
H    4.71415066   0.32793800  -0.10289595
H    3.34970159   0.36500403  -0.75772422
O    0.38264739  -0.00858562   3.77679601
H    0.92184345   0.43055057   3.11902792
H    0.87707357   0.08146946   4.59145219
O   -3.46023842   0.89558201  -0.98603948
H   -2.80157781   0.84760969  -1.67892959
H   -4.26920562   1.13188903  -1.43987085
O    0.68038710   3.44623586   0.37118808
H    0.64596764   4.29959081   0.80342932
H   -0.17567804   3.05468191   0.54459462
O   -1.50987658   1.88137776   0.72939252
H   -2.26957471   1.75195603   0.16164204
H   -1.79275472   1.56044659   1.58567225
O    0.48008857  -1.11391647  -3.66943233
H    0.58693672  -1.51589532  -4.53153924
H    0.30693229  -1.84922403  -3.08157900
O    2.36377863  -2.18930025  -0.12657795
H    2.01354141  -2.34334901   0.75082430
H    3.05267078  -1.53710667   0.00110525
O    0.54076127  -2.11132698   1.91504170
H   -0.13972561  -2.78130064   1.84943114
H    0.39150700  -1.70024007   2.76648903
O    0.64056847   2.90404260  -2.32956094
H    0.79728190   3.67055072  -2.88104807
H    0.69663336   3.23724190  -1.43397912
O   -2.50583936  -1.09008654   0.70757582
H   -3.04022926  -0.54316635   0.13178282
H   -2.55453116  -0.65925566   1.56094895
O    0.06762056  -2.75146437  -1.50167482
H   -0.47384069  -3.27467530  -0.91065715
H    0.95573375  -2.84109472  -1.15605479
O    1.63879687   1.11074065   1.56213037
H    1.49335163   2.00427793   1.25121451
H    2.49873043   0.87298378   1.21540600
O    1.99379035   0.53552560  -1.97225556
H    1.71886401  -0.03411667  -2.69069487
H    1.67882519   1.40452169  -2.22100160
K    0.05488874  -0.35211954  -0.15294254
