49
Energy:   -881.52090754
O   -2.69214806  -1.30824975  -2.60471100
H   -3.36939690  -1.89435310  -2.94242202
H   -2.14353335  -1.86727765  -2.05449145
O   -2.83813912  -2.04797161   1.40119797
H   -3.49458677  -2.49086068   1.93893175
H   -2.24558989  -1.64052961   2.03294813
O   -0.11851714   2.06938135  -1.80412935
H   -0.85143869   2.54347273  -1.41132505
H   -0.49912267   1.62327325  -2.56067337
O    2.92839078   0.08524346   2.98381323
H    3.82414997   0.13222882   3.31793850
H    2.95571772   0.56444505   2.15565206
O    0.57811250   1.24564497   3.97618604
H    1.43630982   0.87232248   3.77528926
H    0.63746599   1.50218939   4.89645447
O   -2.73941909   0.18667855  -0.26587539
H   -2.97661844  -0.49555657   0.36223571
H   -2.91041002  -0.20549685  -1.12214194
O    0.12807717   2.40914779   1.44418162
H    0.06159177   2.29294116   2.39197250
H   -0.69914033   2.82083000   1.19425999
O   -2.19974012   2.88042081  -0.10270751
H   -2.59676956   2.00946086  -0.10802196
H   -2.94318283   3.48316309  -0.11775827
O   -0.72020833   0.18283841  -3.75598729
H   -0.80672972   0.25538038  -4.70650481
H   -1.47222054  -0.34429064  -3.48609019
O    1.39755363  -1.84738609   1.60932642
H    1.78049206  -2.40853078   0.93500703
H    2.15074042  -1.46210368   2.05709754
O    1.72227215  -3.10103962  -0.86068183
H    1.77072173  -2.35682657  -1.46070800
H    2.25179845  -3.78056907  -1.27790297
O    2.61072532   1.83825429  -2.09802653
H    1.70455533   2.14660183  -2.09493019
H    3.07914781   2.47527895  -2.63748162
O   -0.83247183  -0.72895035   2.66232281
H   -0.51890392  -0.05331068   3.26350335
H   -0.07900099  -1.30542719   2.53509079
O   -1.02195227  -2.41808180  -0.75011894
H   -0.23215740  -2.95536089  -0.68857966
H   -1.53822565  -2.66143030   0.01830487
O    2.49045612   1.32183237   0.59993406
H    1.85784707   1.98962976   0.86466845
H    2.74993936   1.57486193  -0.28599841
O    1.45480235  -0.70029894  -2.22061545
H    2.05925423   0.03891283  -2.28721667
H    0.78988548  -0.52740583  -2.88711779
K    0.04389297   0.02259898   0.06653527
