49
Energy:   -895.08191846
O   -1.15728336  -3.40620385   0.50253537
H   -1.74635852  -4.15109759   0.38272048
H   -1.73521521  -2.64333124   0.51840998
O   -2.41091265   0.23428353   2.94345958
H   -1.47481718   0.05271291   3.02706119
H   -2.73724164   0.23136287   3.84331107
O   -1.26949720   1.26073379  -2.47376763
H   -0.77614742   2.07159564  -2.59762595
H   -0.88135911   0.64615130  -3.09655896
O    2.75696765   0.10575226   0.28124310
H    2.78257921   0.41679426  -0.62364849
H    2.95982341  -0.82769777   0.21998608
O    0.24081939  -0.26577853   2.49635639
H    0.95842678   0.33575491   2.69492375
H    0.63552261  -1.13617186   2.54980421
O   -3.59023169   1.04216292  -1.03601424
H   -2.92276231   1.16868123  -1.71033582
H   -4.41236771   1.28047209  -1.46442169
O    0.60853705   2.99787919   0.42340990
H    1.16253828   2.83012347   1.18575661
H   -0.28170197   3.02189302   0.77430826
O   -1.94875626   2.11221927   0.95888964
H   -2.66260936   1.96783204   0.33776329
H   -2.22889799   1.66144308   1.75547817
O    0.26784826  -0.70776380  -3.70256114
H    0.32158584  -1.19768409  -4.52312328
H    0.31597640  -1.37699905  -3.01989013
O    2.77733146  -2.64090436   0.11174630
H    2.28889401  -2.85208151   0.90740007
H    3.49287980  -3.27643075   0.09361807
O    0.99005686  -2.93865590   2.19186363
H    1.01963973  -3.55640969   2.92243667
H    0.21709732  -3.19732151   1.69000956
O    0.57363421   3.34995840  -2.30998391
H    0.73081153   4.22702459  -2.65967240
H    0.63726494   3.45511998  -1.36070838
O   -2.40497253  -0.98188920   0.46099653
H   -2.98909353  -0.45977456  -0.08894057
H   -2.56495545  -0.66465924   1.34981735
O    0.47113518  -2.09701322  -1.31325322
H   -0.12994279  -2.68410679  -0.85471394
H    1.33977552  -2.35261833  -1.00283118
O    2.17418098   1.72830694   2.38467522
H    2.89370689   2.08360244   2.90647923
H    2.60458726   1.22290577   1.69507249
O    1.91735100   0.93416829  -2.18434506
H    1.65873799   1.83321957  -2.38697272
H    1.55140587   0.41242574  -2.89855842
K   -0.02472726   0.37550062  -0.17713802
