49
Energy:   -881.91138575
O   -2.67144004  -2.63389516   1.76548300
H   -3.51806959  -3.07667620   1.82375142
H   -2.79381217  -1.81737559   2.24978943
O   -2.55422389  -0.16647732   2.99169124
H   -1.60024036  -0.23412908   3.03132112
H   -2.81082531   0.12345276   3.86709292
O   -0.85764689   1.39051265  -2.43217948
H   -0.54972189   2.29626496  -2.46422305
H   -0.28494061   0.92074488  -3.03844477
O    2.52906816  -0.30889164   1.35790757
H    3.28566175   0.13550981   0.97540877
H    2.64505164  -1.22860082   1.11933954
O    0.11211111  -0.61327342   2.61883741
H    1.04437502  -0.40608850   2.55410517
H    0.07759910  -1.56980051   2.60900415
O   -3.28176764   0.57364169  -1.46291106
H   -2.55136261   0.91596465  -1.97823166
H   -4.04763299   0.69041133  -2.02509161
O   -0.10487825   3.34422281   0.62818679
H   -0.96862697   2.97204829   0.80610842
H    0.07238323   3.90948857   1.38004106
O   -2.16455033   1.56721049   0.87312559
H   -2.74058831   1.31425131   0.15172158
H   -2.46095702   1.03818273   1.61373653
O    1.21121775  -0.00852923  -3.64836421
H    1.47965396  -0.38914622  -4.48460852
H    1.17976807  -0.75145509  -3.04561723
O    2.09402587  -2.97179541   0.60622400
H    1.37936296  -3.22832372   1.18904644
H    2.67944335  -3.72904440   0.59662348
O   -0.05816464  -3.34491958   2.34011672
H   -0.03645239  -3.97023012   3.06451105
H   -0.98372719  -3.28325525   2.10397412
O    0.42395115   3.81031995  -2.02790541
H    0.41017996   4.71949234  -2.32698359
H    0.22913004   3.86251210  -1.09219575
O   -1.62627349  -1.40088863  -0.46567819
H   -2.32878625  -0.88194680  -0.85735031
H   -2.05498756  -1.89826724   0.23077755
O    0.88484706  -1.68325117  -1.51412142
H   -0.03215291  -1.86078850  -1.30478098
H    1.38036843  -2.23269064  -0.90682685
O    4.35275200   1.07537294  -0.09800429
H    5.19121601   1.47414573  -0.33079222
H    3.74315856   1.39187623  -0.76467764
O    2.22244722   1.71459572  -1.73011168
H    2.06671200   1.17625784  -2.50610828
H    1.80597331   2.55251247  -1.93179673
K    0.34074399   0.60114880  -0.00334111
