49
Energy:   -889.11400511
O   -2.12538545  -1.45095313  -3.11651123
H   -2.92218461  -1.82727640  -3.49030761
H   -1.70256929  -2.18251012  -2.66675272
O   -2.36178496  -1.20115589   2.74173050
H   -1.54483002  -1.00194294   3.19903857
H   -2.95879777  -1.49019436   3.43184956
O   -0.67914462   2.40028948  -2.83626732
H   -0.36976926   1.67955048  -3.38495123
H   -0.96090489   3.07135589  -3.45796891
O    3.32245529   1.87240447   0.50152003
H    4.07670162   2.43048780   0.31208056
H    2.61372032   2.23922401  -0.02703462
O    0.20527539  -0.62788138   3.38568930
H    0.85866734  -1.32116289   3.29256806
H    0.71663499   0.18043563   3.42266005
O   -1.94247875   0.55979171  -1.20524660
H   -2.16127564  -0.14457025  -1.81535642
H   -1.66133891   1.28351619  -1.76508149
O   -0.55209444   3.49723052   1.64228698
H   -0.91746489   4.30253076   2.00865811
H   -1.26741291   2.86338652   1.69513707
O   -2.18796329   1.27658836   1.46612857
H   -2.49421293   0.52385529   1.97193085
H   -2.48896931   1.10468914   0.57389660
O    0.01071235   0.03227890  -4.05188691
H    0.27903477  -0.19552193  -4.94202269
H   -0.77212611  -0.49562929  -3.89469677
O   -0.63906683  -3.26997059  -1.69221308
H   -0.74373931  -3.13885578  -0.74983076
H   -0.49889323  -4.21185483  -1.78935885
O    1.76026605  -2.65930356   2.32511631
H    2.37045544  -3.29398375   2.70072491
H    2.29585132  -2.13458337   1.73009615
O    0.85228338   2.52263854  -0.54791123
H    0.39481870   2.62693036  -1.38222600
H    0.36824287   3.07895955   0.06237033
O   -0.66645467  -2.50692366   0.92978042
H   -1.36453111  -2.30084090   1.55143227
H    0.07172739  -2.77371535   1.47763194
O    1.09013053  -1.09804905  -1.74765366
H    0.63362895  -1.93729151  -1.80690096
H    0.89526312  -0.65985227  -2.57605098
O    1.39695990   1.69187877   2.52132250
H    0.86595817   2.48190762   2.42070723
H    2.20956068   1.88788896   2.05496232
O    2.73354310  -0.85266518   0.49451792
H    3.17725912  -0.00452404   0.49238705
H    2.53335518  -1.02109373  -0.42623637
K    0.14918386   0.10469244   0.59075430
