49
Energy:   -881.77798070
O   -1.15635074  -3.39254788   0.32766660
H   -1.68355275  -4.12623955   0.64387289
H   -1.71984628  -2.62677001   0.43852181
O   -2.39452903   0.43031539   3.18065980
H   -1.45377164   0.45898755   3.35497356
H   -2.80053378   0.47787500   4.04618281
O   -1.32562709   0.79718905  -2.16436511
H   -0.89779589   1.60877602  -2.43734660
H   -0.93040826   0.12079837  -2.71439199
O    2.88052198   0.21737334   0.39507930
H    2.78916319   0.48080717  -0.52061063
H    3.10874936  -0.71139747   0.35597822
O    0.32186804   0.49559728   3.01434077
H    1.07995387   1.07963937   2.99354281
H    0.68925776  -0.37911740   2.88733342
O   -3.66700354   0.91650553  -0.76392887
H   -4.47815022   1.09861673  -1.23838480
H   -2.98972936   0.90960075  -1.44030440
O    0.51798044   3.11830961   0.26123974
H    1.14706691   3.10310284   0.98252389
H   -0.33657882   3.17131145   0.68920133
O   -1.98034634   2.18757954   1.06718027
H   -2.69870284   1.97795893   0.47030926
H   -2.23704462   1.79171009   1.90002192
O    0.25999976  -1.18884921  -3.32392548
H    0.27997096  -1.48143545  -4.23509303
H    0.42779579  -1.98116341  -2.81371517
O    2.89583747  -2.56809888   0.04596350
H    2.30720680  -2.88479183  -0.63920170
H    3.62885588  -3.18357926   0.03597603
O    0.77234364  -1.88669944   1.64058944
H    1.59127213  -2.21038748   1.26533748
H    0.12140061  -2.54640412   1.40122622
O    0.31251038   3.02271876  -2.47959092
H    0.38789021   3.84315280  -2.96686672
H    0.41280494   3.27815185  -1.56257032
O   -2.33741225  -0.96497328   0.77254555
H   -2.95432732  -0.46461987   0.23841624
H   -2.48026044  -0.64812900   1.66441771
O    0.78389707  -3.33618128  -1.64657215
H    0.07421403  -3.40807131  -1.00828253
H    0.82899245  -4.20127991  -2.05376082
O    2.34706813   2.21118729   2.20196216
H    3.07651044   2.63956302   2.64989073
H    2.76268551   1.56966809   1.62581360
O    1.78296706   0.72882978  -2.02945774
H    1.46807002   1.57259261  -2.35370456
H    1.42561649   0.08727750  -2.64341465
K    0.03610229   0.41184218   0.23916703
