49
Energy:   -889.64817916
O   -2.65844417  -1.75006104  -1.77428387
H   -3.36726221  -2.27612576  -2.14450644
H   -2.36299583  -2.24793625  -1.01200937
O   -1.50318008  -0.82897192   2.38909831
H   -1.92409249  -0.00187070   2.62355121
H   -0.95135204  -1.03941000   3.14238012
O   -1.38975917   2.64684518  -2.54062219
H   -1.94965247   3.09122232  -3.17723848
H   -0.75595639   2.16597015  -3.07286753
O    3.60905558  -0.10423986   0.07335741
H    3.15658834   0.51609337  -0.49821230
H    4.53905087   0.05886616  -0.08392274
O    0.74936406  -1.83740627   3.77031519
H    1.26788358  -1.14415389   3.36193975
H    1.06675189  -1.87464872   4.67259553
O   -2.32705799   0.81976780  -0.66811154
H   -2.66085632   0.04862169  -1.12652642
H   -2.14150408   1.45075623  -1.36356477
O    0.16178309   2.18325989   1.52460301
H   -0.74473664   2.22624519   1.82891549
H    0.23192427   2.88675563   0.87930787
O   -2.53401870   1.75035866   1.96549439
H   -2.68887474   1.48489010   1.05897473
H   -3.33029573   2.21766852   2.21807356
O    0.55815335   1.13016575  -3.75462609
H    0.90834710   1.01082522  -4.63743639
H    0.33632498   0.24591141  -3.46287572
O    1.79986743  -2.18155475  -0.53191142
H    1.71174788  -2.80498458   0.18906156
H    2.61867907  -1.71988524  -0.35124432
O    0.95463777  -3.64810262   1.67634575
H    0.90220870  -3.12459965   2.47598797
H    1.17669980  -4.52832061   1.97988586
O    0.38748810   3.76766650  -0.72678437
H    0.52697216   4.70614330  -0.85342299
H   -0.29474728   3.53910219  -1.35808865
O   -1.36352719  -2.69342856   0.42457280
H   -1.66552123  -2.22452949   1.20249640
H   -0.65959291  -3.25844084   0.74311557
O   -0.03468281  -1.16738241  -2.45235337
H   -0.90786034  -1.55562205  -2.39701047
H    0.54980408  -1.84057744  -2.10390627
O    1.88714897   0.09829575   2.23326392
H    1.56093153   0.99808880   2.21960698
H    2.65318859   0.11201403   1.65948088
O    1.77586357   1.43799513  -1.28399290
H    1.49576258   2.32586847  -1.06160537
H    1.54500130   1.33775387  -2.20751126
K    0.05081474  -0.22463991   0.17494091
