49
Energy:   -885.85782549
O   -2.69094314  -1.59617331  -2.36861675
H   -3.50087704  -2.09495234  -2.47566067
H   -2.32124297  -1.91282872  -1.54443049
O   -2.13745672  -1.17077186   2.56620934
H   -1.37430156  -1.08959813   3.13825556
H   -2.83534724  -1.48612809   3.14043153
O   -0.86950909   2.02993764  -3.36232406
H   -0.69731676   1.15421765  -3.70829537
H   -1.08341086   2.55490776  -4.13361146
O    3.65345490   0.40515419   1.78674782
H    4.58872674   0.49445411   1.96984328
H    3.57690461   0.56361960   0.84586493
O    0.23700325  -0.76908850   3.87291094
H    0.52022636   0.09343313   3.56947566
H    0.48065755  -0.78985801   4.79834762
O   -2.20254488   0.88198286  -1.25133958
H   -2.56094004   0.09105181  -1.65409613
H   -1.90243747   1.41232508  -1.98951607
O   -0.24633227   3.52868714   1.25908453
H   -0.52916819   4.37930846   1.59476156
H   -0.98733036   2.94627324   1.42626027
O   -1.99333844   1.39728970   1.42881459
H   -2.38807281   1.29917401   0.56233324
H   -2.26909895   0.61591969   1.90803155
O   -0.62130106  -0.69820997  -3.95303693
H   -0.60782102  -1.10893460  -4.81753414
H   -1.39152225  -1.06961991  -3.52286741
O    0.94206725  -3.43189091  -0.23090808
H    1.31859346  -4.31049574  -0.18077408
H    1.37118503  -2.94633757   0.47359723
O    1.70827787  -1.59572952   1.66357547
H    1.28496734  -1.52108851   2.51883493
H    2.50968507  -1.07891632   1.74653613
O    0.79579033   2.51338407  -1.16605494
H    0.25600930   2.59408547  -1.95241082
H    0.42596132   3.15032984  -0.55469707
O   -1.43010998  -2.04438056   0.01619927
H   -1.74093096  -1.99463281   0.92016129
H   -0.74384793  -2.71141278   0.03475341
O    1.22382773  -1.18828512  -1.94105469
H    1.16812328  -2.10116734  -1.65861014
H    0.67673806  -1.14592575  -2.72535720
O    1.13737804   1.40393018   2.47294889
H    0.91792895   2.30366754   2.23098477
H    2.08534706   1.34754895   2.35291670
O    2.86576752   0.72946311  -0.77725615
H    2.41783549   1.51760712  -1.08453089
H    2.60035087   0.04686751  -1.39357513
K    0.17962769   0.20975260   0.15791665
