49
Energy:   -887.14046709
O   -1.13088527  -3.53025522   0.26970364
H   -1.66463673  -4.32480791   0.26448400
H   -1.76431337  -2.81522660   0.20859087
O   -2.56027516   0.10311551   2.74502041
H   -1.73567608   0.04271491   3.22732734
H   -3.23373822   0.13691170   3.42438569
O   -1.04178323   1.02678681  -2.60233885
H   -0.57528679   1.85725497  -2.69686699
H   -0.60128729   0.43348379  -3.21076854
O    2.83442054   0.22940859   0.46188086
H    2.91378494   0.54404233  -0.43864051
H    3.07640434  -0.69551888   0.41513824
O   -0.01563225  -0.11995296   3.78927438
H    0.61166124   0.52313470   3.45886102
H    0.21092642  -0.22328612   4.71351746
O   -3.46994137   0.87832014  -1.34086976
H   -2.74821286   0.96867255  -1.96310465
H   -4.25151665   1.10341175  -1.84555351
O    0.59425031   2.79171855   0.34877115
H    1.05667989   2.63662772   1.17238366
H   -0.33267769   2.77378747   0.58691983
O   -1.93382575   1.89930057   0.74429257
H   -2.60531323   1.75671705   0.07720461
H   -2.27046958   1.45505899   1.52246492
O    0.64637957  -0.83755041  -3.79532007
H    0.78455328  -1.28684057  -4.62915353
H    0.66055668  -1.53611477  -3.14107341
O    2.84204222  -2.52185962   0.28029162
H    2.15761476  -2.45143079   0.94574686
H    3.42184765  -3.21108391   0.60437092
O    0.69239321  -2.33199370  -1.47898233
H    1.53771264  -2.52183666  -1.07200990
H    0.07654414  -2.91635593  -1.03684825
O    0.69120499   3.19810097  -2.37177147
H    0.85047308   4.08258718  -2.70124026
H    0.70901579   3.29002181  -1.41916180
O   -2.38250661  -1.11539814   0.25132884
H   -2.93014019  -0.58378963  -0.32635766
H   -2.58378228  -0.79816046   1.13171523
O    0.59256767  -1.84048586   1.69118818
H    0.32877304  -1.47841830   2.53709085
H   -0.05790502  -2.51806775   1.50679754
O    1.80167289   1.60068978   2.57840065
H    2.45315605   2.11144670   3.05895128
H    2.30979460   1.11199103   1.93093041
O    2.11394146   0.84220449  -2.12151853
H    1.82716052   1.72527665  -2.35426757
H    1.84372664   0.29915242  -2.86199827
K    0.11383170   0.09913503  -0.26902994
