49
Energy:   -881.97575971
O    2.71496585  -1.39121936   2.85988981
H    3.10270727  -2.18356853   3.23146919
H    1.95712337  -1.70387788   2.36577315
O   -2.55335737  -0.25109896   0.69983165
H   -1.95424297   0.10634445   1.35521551
H   -2.56802985  -1.19186549   0.87582856
O    2.80675212   2.46275520   1.46202909
H    3.39065337   3.19419582   1.66274233
H    2.53515591   2.13069976   2.31771977
O    3.40547358  -0.08362833   0.50347495
H    3.39385529   0.83554051   0.77035603
H    3.39030022  -0.57261803   1.32620863
O   -0.39385535   0.67022214   2.14604254
H    0.21941190   0.90173954   2.84356301
H   -0.06534618   1.13197783   1.37461837
O   -1.22571234   3.32067736  -1.28010763
H   -1.31423314   4.27377080  -1.27713821
H   -2.03317592   3.00340099  -0.87566962
O    0.50909353  -1.71145814   1.25066817
H    0.15754632  -0.90380367   1.62528886
H   -0.24820959  -2.29255698   1.17961905
O    1.88546741   1.10683966   3.69409704
H    2.23910972   0.22989993   3.54528286
H    1.97552766   1.24510744   4.63696661
O    1.11316856  -3.32091309  -1.93881415
H    1.52688123  -4.12234122  -2.25941769
H    0.17637536  -3.51750791  -1.93972129
O    1.34736825   0.56928326  -3.53563874
H    0.47839795   0.96452178  -3.60570289
H    1.79059878   0.81881722  -4.34650947
O   -3.45256223   2.19350136  -0.22674690
H   -4.34273909   2.41258718   0.04860454
H   -3.29806765   1.32016828   0.13332615
O   -1.27377250  -0.68897629  -1.69270560
H   -1.38779854   0.04735753  -2.29357365
H   -1.75699629  -0.43433581  -0.90664908
O    0.66674223   1.67494880  -0.11911966
H    0.11486510   2.35260775  -0.50955766
H    1.39235298   2.15608009   0.27866617
O   -1.94003850  -2.98437687   0.88945215
H   -2.35790538  -3.71029503   1.35276839
H   -1.90338649  -3.27138001  -0.02297192
O   -1.64749489  -3.38494956  -1.81610780
H   -2.26129523  -3.68093704  -2.48832235
H   -1.61255894  -2.43457617  -1.92474361
O   -1.24377698   1.52451206  -3.34985765
H   -1.89729652   1.78779414  -3.99779792
H   -1.24501419   2.23298482  -2.70619883
K    1.46037875  -0.75754400  -1.20554019
