49
Energy:   -881.87545580
O   -1.18324389  -3.32750577   0.17685470
H   -1.81810055  -4.01856630  -0.01188906
H   -1.71712952  -2.55309998   0.35431925
O   -2.03288670   0.82405448   2.67487694
H   -2.41428708   0.95685643   3.54270713
H   -1.17786156   0.42938617   2.84634352
O   -1.48393594   0.89288594  -2.50737903
H   -1.19005524   1.80380559  -2.49782015
H   -0.89871233   0.45841214  -3.12784473
O    2.81012758   0.14663280   0.23443830
H    2.79782588   0.60474552  -0.60592665
H    2.99448036  -0.76497850   0.00814039
O    0.37940980  -0.50854289   2.49493473
H    1.18144460  -0.07463053   2.78595379
H    0.62147479  -1.43108476   2.41398478
O   -3.82519909   0.71569051  -1.12089689
H   -3.14535162   0.73382963  -1.79447706
H   -4.64733175   0.76921368  -1.60820071
O    0.86053998   2.58292630   1.53465003
H    0.85996636   3.51421155   1.75587228
H    1.54126865   2.20449905   2.09109693
O   -2.08089912   2.38696218   0.28296281
H   -2.85311694   1.97590600  -0.10555270
H   -2.12968448   2.15979962   1.21153645
O    0.59596980  -0.37718543  -3.77739076
H    0.78296160  -0.85066616  -4.58799665
H    0.59502520  -1.05296868  -3.09949109
O    2.80657929  -2.59107306  -0.15276606
H    2.31780131  -2.87395846   0.62008825
H    3.49859808  -3.24495235  -0.25167877
O    0.98772221  -3.14367067   1.86308349
H    0.98923905  -3.82735544   2.53301235
H    0.20865636  -3.32467817   1.33722750
O   -0.42871368   3.32606871  -1.76228437
H   -0.51174908   4.23391171  -2.05410291
H   -0.98126462   3.27316206  -0.98246376
O   -2.34511990  -0.89499980   0.54256179
H   -2.99547933  -0.48167517  -0.02526496
H   -2.42360270  -0.42995635   1.37551250
O    0.50937148  -1.83731057  -1.44174357
H   -0.12696033  -2.44803257  -1.06981307
H    1.35753736  -2.15850873  -1.13567459
O    2.69724249   0.97566558   2.81888159
H    3.52704496   1.07181962   3.28622953
H    2.94892354   0.70256270   1.93666658
O    1.74335131   1.43533789  -1.99731957
H    1.29203415   2.27426389  -2.09084935
H    1.50506614   0.94557071  -2.78445370
K   -0.00519994   0.54859909  -0.06102374
