49
Energy:   -893.55088036
O   -1.53317142  -2.95234567   1.91755724
H   -2.14777528  -3.66008814   2.11145036
H   -2.06568083  -2.28310377   1.48769581
O   -3.02224187   1.53632741   1.87849597
H   -2.20959534   1.35971398   2.35246346
H   -3.59418179   1.94644669   2.52727848
O    2.38350673  -0.07126817  -1.52073065
H    2.17792590   0.61115704  -2.15968620
H    2.24543234  -0.89207220  -1.99343357
O    3.79149721   0.55001041   0.76180715
H    4.74301887   0.62535015   0.68995804
H    3.50345673   0.30123559  -0.11647277
O   -0.54364420   0.74563851   2.63825339
H    0.23058692   1.28436395   2.47524137
H   -0.22166127   0.01713322   3.16913839
O   -3.12963775   0.15059854  -2.02927979
H   -2.31858699  -0.07212285  -2.48625210
H   -3.80582607   0.10678440  -2.70535785
O    0.52947074   3.49880091  -1.03982175
H    0.41767483   4.44909049  -1.01368296
H   -0.34632603   3.14949978  -0.87489578
O   -1.74054217   2.04615425  -0.52307833
H   -2.32099421   1.59861855  -1.13872358
H   -2.24046281   2.08629756   0.29221285
O    1.27216177  -2.34900570  -2.70178221
H    1.54050718  -3.08717521  -3.24889131
H    0.94387693  -2.75264503  -1.89832953
O    1.95016424  -1.42921296   1.47822551
H    1.67380829  -1.50689554   2.39136550
H    2.71747650  -0.85771772   1.50749897
O    0.25133054  -1.68614713   3.67146608
H    0.27078156  -2.07436014   4.54619127
H   -0.38127498  -2.21689254   3.18736752
O    1.24805680   1.86308197  -3.12898791
H    1.55231798   2.34026145  -3.90097024
H    1.04173808   2.54588989  -2.49067938
O   -2.63554289  -0.85502076   0.52459419
H   -3.00071563  -0.69217411  -0.34509638
H   -2.94634416  -0.12235717   1.05641980
O    0.33231350  -2.85908996  -0.17430588
H    1.07246065  -2.63532010   0.38991136
H   -0.34724470  -3.15952569   0.42915985
O    1.44218863   1.96174410   1.13113339
H    1.35553327   2.65772910   0.47972909
H    2.35816023   1.69024259   1.07184751
O   -0.52422639  -0.24382552  -2.74203468
H   -0.00197903   0.48849348  -3.06944638
H   -0.00060029  -1.01996291  -2.94117863
K   -0.00714469  -0.09164610  -0.00069793
