49
Energy:   -889.06183586
O   -2.78804982  -1.65454754  -1.64353325
H   -3.52219806  -2.22736788  -1.86519756
H   -2.55262527  -1.90134519  -0.74916305
O   -2.16401168  -0.82808388   3.29687802
H   -1.30560940  -1.07031072   3.64430216
H   -2.76663900  -0.96759122   4.02736406
O   -1.11017252   2.67259777  -2.87464179
H   -1.59433718   3.15650460  -3.54370876
H   -0.51866505   2.10557267  -3.36944813
O    3.54064875  -0.42597339   0.02844125
H    4.49098266  -0.40666070  -0.08436097
H    3.21260068   0.23010685  -0.58651811
O    0.44921867  -1.60901846   3.85148298
H    0.98888502  -0.99323668   3.35569586
H    0.86451120  -1.65254795   4.71280124
O   -2.33793625   1.03702153  -0.96905856
H   -2.70742122   0.25582072  -1.38068703
H   -2.11240796   1.61039506  -1.70159636
O    0.81100638   2.47539165   1.36039116
H    0.79717479   3.11194713   0.64566208
H   -0.08951158   2.45882545   1.68446647
O   -1.71077203   1.44721691   1.76331236
H   -2.33998660   1.44895877   1.04198176
H   -2.04469417   0.78775965   2.37146034
O    0.69881850   0.89766410  -3.94917245
H    1.01015735   0.66374952  -4.82357736
H    0.36253107   0.07796030  -3.58691798
O    1.43314196  -2.19891503  -0.45212631
H    2.31299181  -1.85120101  -0.30655483
H    1.27549288  -2.77409276   0.29657203
O    0.45829017  -3.48181017   1.81232823
H    0.52060441  -2.95653307   2.61009559
H    0.54837942  -4.38615334   2.11279322
O    0.76732535   3.73504929  -1.11747260
H    0.05239232   3.51856563  -1.71600199
H    0.96291242   4.65415701  -1.29973217
O   -1.63413139  -1.94666513   0.84032230
H   -2.00019745  -1.63513231   1.66807515
H   -1.01892818  -2.63476575   1.09384626
O   -0.19781165  -1.18046295  -2.45944553
H   -1.09007012  -1.50730308  -2.34419712
H    0.35233755  -1.82005026  -2.00723344
O    1.80779724   0.03350300   2.14799933
H    1.68737016   0.98272310   2.12134679
H    2.57834598  -0.12604546   1.60299403
O    2.00601430   1.27974370  -1.52881432
H    1.81840196   2.20455307  -1.36831171
H    1.75707405   1.13939720  -2.44235877
K    0.02789398   0.12705173   0.02351743
