49
Energy:   -887.42847934
O   -2.93415629  -0.99864540  -2.31611695
H   -3.81419393  -1.35023051  -2.45085193
H   -2.61754173  -1.43984949  -1.52787459
O   -2.33836467  -1.23273955   2.64087163
H   -1.41805314  -1.28790033   2.89819598
H   -2.81930874  -1.57294589   3.39531466
O   -0.55643652   2.41230429  -2.90638534
H   -0.52924889   1.56661137  -3.35392993
H   -0.69528450   3.05001779  -3.60658145
O    3.50533043   1.85972987   0.42026429
H    4.25128107   2.44191808   0.27588157
H    2.78875856   2.26144840  -0.07103890
O    0.39061121  -1.17232485   2.74839312
H    1.02855876  -1.86159522   2.56356581
H    0.92117134  -0.41063022   2.98197199
O   -2.13733039   1.27018591  -0.96367103
H   -2.58932955   0.57925349  -1.44796536
H   -1.74931749   1.82379921  -1.64130674
O   -0.12864058   3.46821995   1.76515624
H   -0.35911040   4.27418716   2.22725187
H   -0.88094388   2.89160693   1.89853172
O   -1.93183817   1.40461026   1.77704159
H   -2.29282858   0.61755729   2.18504329
H   -2.34873313   1.44143084   0.91618464
O   -0.76400605  -0.21975873  -3.82953777
H   -0.80957803  -0.52205587  -4.73660528
H   -1.57865839  -0.52802894  -3.43262102
O    0.34689216  -3.58373016  -0.40782902
H    0.98380518  -3.50594179   0.30246853
H    0.34496265  -4.51538636  -0.62747614
O    2.14343674  -2.98851778   1.60502912
H    2.86893696  -3.46206684   2.01200894
H    2.56110426  -2.26473011   1.13821320
O    1.04886195   2.55802265  -0.62241443
H    0.57379096   2.70090800  -1.44102495
H    0.61025815   3.12521275   0.01174167
O   -1.75960982  -1.85286558   0.00090822
H   -2.09379148  -1.84778583   0.89786344
H   -1.16321145  -2.60097031  -0.02875901
O    0.93854045  -1.19867775  -1.87530832
H    0.70833510  -2.11064305  -1.69766647
H    0.43618399  -0.97244925  -2.65805381
O    1.57700174   1.34336414   2.39773140
H    1.10556837   2.17616594   2.41831262
H    2.40349728   1.54622122   1.95956935
O    2.78661775  -0.78506522   0.15539724
H    3.24186589   0.05640155   0.18564054
H    2.54188077  -0.89261874  -0.76371532
K    0.11302658   0.17352670   0.34546669
