49
Energy:   -885.79042822
O   -2.71790799  -2.44072316  -1.46448631
H   -3.28231159  -3.19998318  -1.61010443
H   -2.34071940  -2.58500041  -0.59664721
O   -3.12824786  -0.42135658   2.26553065
H   -3.98067151  -0.38259640   2.69923956
H   -3.30679622  -0.16154398   1.36173325
O   -1.43908937   1.85901745  -1.90348890
H   -0.95941300   2.65988105  -1.69192352
H   -1.11237543   1.60446592  -2.76644508
O    3.65484211  -0.21039794  -0.79834708
H    4.52178912  -0.18986170  -1.20357910
H    3.11550997   0.34935377  -1.35694417
O    1.19979168  -0.69503913   3.50786853
H    1.71213731  -0.24448706   2.83649931
H    1.67671163  -0.53403884   4.32202952
O   -3.02882235   0.14063212  -0.41318447
H   -3.15567619  -0.64208918  -0.94936291
H   -2.83083660   0.83357231  -1.04315858
O    0.80471337   3.11645631   1.64396817
H    0.89421213   3.78190167   2.32617364
H    0.16520724   2.49697459   1.99540260
O   -0.74956656   0.94082886   2.36887554
H   -1.63595643   0.60175090   2.49365925
H   -0.20147090   0.39189120   2.92967001
O   -0.01111052   0.74156408  -4.01484191
H   -0.04017420   0.65920028  -4.96804879
H   -0.15483225  -0.14822533  -3.69258313
O    1.55243929  -2.06481012  -0.54573684
H    1.55011666  -2.52897690   0.29138660
H    2.42181236  -1.66764351  -0.59751531
O    0.98216207  -3.00998130   2.05080061
H    1.10383419  -2.29845293   2.67941426
H    1.24535908  -3.79792695   2.52630123
O    0.49587972   3.67650683  -1.03121150
H    0.60809710   4.60472879  -1.23625561
H    0.58844826   3.62801794  -0.07973279
O   -1.41389501  -2.21045730   0.93750395
H   -1.97530339  -1.83739422   1.61711886
H   -0.70201164  -2.63196892   1.41894124
O   -0.35691975  -1.50913913  -2.51793965
H   -1.17086009  -1.97516222  -2.32674484
H    0.32161082  -2.02040067  -2.07698643
O    2.14470075   0.62545636   1.33985407
H    2.08493949   1.58033432   1.36932456
H    2.83734375   0.44787453   0.70350337
O    1.67259881   1.32486657  -1.90524749
H    1.43837056   2.22990274  -1.69963010
H    1.25906633   1.15637762  -2.75190812
K   -0.19392908   0.03460712  -0.20370760
