49
Energy:   -881.24644539
O   -2.37622526  -1.68320671  -3.03976902
H   -2.90324083  -2.37960810  -3.43157450
H   -1.77361579  -2.13970230  -2.45265281
O   -2.04099671  -1.03058355   3.13766740
H   -1.15413572  -1.05136169   3.49721950
H   -2.57257653  -1.49660060   3.78302222
O   -0.50245499   1.18497570  -1.39938666
H   -0.35936818   0.95460807  -2.31736747
H   -0.20226248   2.09121557  -1.32977626
O    2.61252186   2.19796057   0.02827905
H    3.42201839   2.70854763   0.04402923
H    1.96129777   2.79203086  -0.34484227
O    0.68332451  -0.86303687   3.35061771
H    1.47631935  -1.34784381   3.12180938
H    0.90234896   0.05202963   3.17479553
O   -2.83495969  -0.05514686  -0.78493892
H   -3.01961288  -0.64248107  -1.51786018
H   -2.18088078   0.55518175  -1.12539686
O   -1.00728962   3.53958765   1.59548214
H   -1.35518026   4.19172586   2.20369238
H   -1.65290900   2.83298042   1.60614438
O   -2.48786148   1.24886634   1.63258042
H   -2.57308461   0.58427684   2.31616631
H   -2.98146982   0.89622639   0.89215641
O   -0.35318154  -0.00793940  -3.89792964
H   -0.50242797   0.35020041  -4.77296863
H   -1.11536018  -0.56288305  -3.73254184
O   -0.41352945  -2.50797369  -1.33649172
H    0.38887455  -2.31145615  -1.81997960
H   -0.12773391  -3.06784998  -0.61462518
O    2.70572299  -2.19959754   1.96307976
H    2.72442347  -1.61275142   1.20710769
H    3.62417756  -2.41958483   2.11889584
O    0.42268940   3.70114996  -0.75908253
H    0.30793024   4.54777198  -1.19069965
H   -0.10385324   3.76468120   0.03775401
O    0.34574712  -3.35597844   1.15417886
H    0.07469861  -4.10318669   1.68751214
H    1.22077785  -3.13722313   1.47464600
O    1.70556092  -1.44678110  -2.73919455
H    2.30847236  -1.81639025  -3.38426720
H    1.10066330  -0.91294897  -3.25431975
O    0.84457457   1.53368895   2.03110564
H    0.25587473   2.28825066   2.04845381
H    1.56763486   1.80636244   1.46624740
O    2.15486454  -0.54008712  -0.15992020
H    2.39681112   0.38569068  -0.18500322
H    2.12824988  -0.80616605  -1.07900971
K   -0.50273199  -0.62548605   0.75921964
