49
Energy:   -883.60069094
O   -2.29564985  -1.45594983  -1.53302801
H   -1.78505012  -2.08379691  -2.04423032
H   -2.27831661  -1.80237254  -0.64088300
O   -2.08301713  -0.01804891   3.05864367
H   -1.24143226  -0.21213233   3.47131592
H   -2.71478868  -0.04612803   3.77718951
O   -1.01033054   1.54138262  -2.59594126
H   -0.61069206   2.39393503  -2.42367598
H   -1.92489776   1.64777000  -2.33425370
O    3.56230674  -0.35601105   0.15770703
H    4.51927496  -0.36972837   0.14172247
H    3.31890668   0.23766313  -0.55260221
O    0.49979256  -0.71898885   3.76914303
H    0.89596873  -0.18930179   3.07725582
H    1.00248503  -0.50280081   4.55450592
O   -3.43760621   1.05450341  -1.29517941
H   -4.35107669   1.16073302  -1.56073317
H   -3.23810762   0.13740931  -1.48325009
O    0.47360146   3.22329230   1.04830215
H    0.37088790   3.93305112   1.68227706
H   -0.37793147   2.78625454   1.03727911
O   -1.69617167   1.57649489   0.81117644
H   -2.45455242   1.51865262   0.23001833
H   -1.96977067   1.12318195   1.60859905
O    0.87835943  -0.41805622  -3.31670934
H    0.12387139   0.12233247  -3.55114423
H    0.54912176  -1.31631465  -3.34779283
O    1.56345549  -2.28937032  -0.27675972
H    1.37164163  -2.66237599   0.58365069
H    2.40191812  -1.84189623  -0.16283342
O    0.66173062  -3.03076340   2.24917119
H    0.68982262  -2.32919197   2.89974034
H    0.77459296  -3.83400103   2.75740661
O    0.71980101   3.54284520  -1.67359841
H    0.94989277   4.42856034  -1.95430881
H    0.66774603   3.59939833  -0.71948947
O   -1.50420045  -1.81074779   1.05777168
H   -1.85801749  -1.29451057   1.78202612
H   -0.87293075  -2.40079592   1.46956484
O   -0.06029687  -2.90099502  -2.48775458
H    0.58672522  -2.92439260  -1.78273911
H    0.03608745  -3.74440055  -2.93003167
O    1.42878355   0.64715797   1.61083981
H    1.35885877   1.59430853   1.49147404
H    2.28818480   0.42307945   1.25383819
O    2.24252207   1.22024780  -1.61899432
H    1.89170283   2.09995669  -1.75781065
H    1.99992058   0.73767349  -2.40924644
K   -0.03614618  -0.10312146  -0.63432704
