49
Energy:   -887.50810112
O   -1.79847864  -3.42139407  -0.94068104
H   -2.44306364  -4.11256192  -1.09243423
H   -2.28052199  -2.74345746  -0.46711160
O   -2.35039964  -0.41296423   3.00454852
H   -1.46680933  -0.77746774   3.05590218
H   -2.72976688  -0.58083708   3.86717883
O   -1.25156119   1.39644195  -2.05807958
H   -0.76196279   2.21088074  -1.94312436
H   -0.86476476   0.99143313  -2.83434514
O    3.77618995   0.21053581  -0.00771156
H    4.68590181   0.38973776  -0.24549895
H    3.26445353   0.55571047  -0.73929350
O    0.22206522  -1.19861518   2.57232698
H    0.84474023  -0.47224233   2.54249151
H    0.76971307  -1.98291875   2.60670123
O   -3.57831030   1.27818901  -0.63094664
H   -2.91325921   1.37794002  -1.31211375
H   -4.37151537   1.65364519  -1.01316415
O    0.47007403   3.41580135   1.31171075
H    0.41366195   4.11332750   1.96478562
H   -0.34159620   2.91999441   1.41940828
O   -1.63834429   1.67311803   1.32163045
H   -2.39458838   1.72620757   0.73724341
H   -1.93235737   1.11932114   2.04488501
O    0.36524837   0.02817761  -3.85654495
H    0.44343641  -0.16489458  -4.79080487
H    0.30713235  -0.83071744  -3.43803130
O    2.07833241  -1.98895164  -0.05443198
H    2.15319906  -2.52635080   0.73412936
H    2.82541598  -1.39219183  -0.00998291
O    1.94637726  -3.38020507   2.35445318
H    2.68185763  -3.48051394   2.95880291
H    1.57905841  -4.26056589   2.27524748
O    0.51458751   3.44854189  -1.43087603
H    0.65819257   4.32133510  -1.79671952
H    0.52492659   3.58098553  -0.48293952
O   -2.69365796  -1.16128600   0.35107749
H   -3.20788310  -0.44294612  -0.01742238
H   -2.76693671  -1.04743456   1.29865330
O    0.23905543  -2.07499451  -2.13472178
H   -0.45138940  -2.67871692  -1.86079292
H    1.00294638  -2.33435062  -1.61951612
O    1.69182226   0.93539387   1.68295605
H    1.50919703   1.87439591   1.64897024
H    2.54501061   0.84135861   1.25933020
O    1.84096945   1.05124649  -1.73556389
H    1.53778638   1.95852697  -1.70159317
H    1.53398660   0.72717544  -2.58230548
K   -0.10999098  -0.25166375  -0.08877453
