49
Energy:   -882.13367510
O   -0.49570412  -2.44210558  -0.09278543
H   -0.16854713  -2.69608992  -0.95574088
H   -1.41958297  -2.23749891  -0.23706236
O   -2.86329649  -0.20300608   2.69040531
H   -1.95123996  -0.38418268   2.91747309
H   -3.34843604  -0.36272702   3.49994882
O   -1.13982599   1.35604458  -2.28960696
H   -0.63969412   2.17205827  -2.30449379
H   -0.68978204   0.78730821  -2.91429187
O    2.51675076  -0.07456031   0.69533480
H    2.60627283   0.37621492  -0.14431950
H    2.76644722  -0.97975553   0.50957921
O   -0.12641329  -0.52664915   2.73400549
H    0.52204637   0.11594695   3.02175915
H    0.35064108  -1.35623931   2.71324169
O   -3.65043889   1.45424115  -1.16796838
H   -2.89035448   1.49867070  -1.74808005
H   -4.37412074   1.79434344  -1.69413078
O    0.39166697   2.90565203   0.87290086
H    0.89354648   2.67761813   1.65542839
H   -0.51928128   2.91619245   1.16665932
O   -2.20161973   2.00873246   1.15208697
H   -2.84355089   2.01596467   0.44208420
H   -2.57823106   1.42451762   1.81018178
O    0.60741714  -0.43874870  -3.58786201
H    0.74508224  -0.53968782  -4.52971734
H    0.81465351  -1.29845372  -3.22153947
O    2.83245005  -2.73640525   0.05260454
H    2.30353478  -2.95451737   0.82000769
H    3.67697258  -3.15631042   0.21598503
O    0.99527619  -3.00854579   2.09352839
H    0.74628799  -3.79266706   2.58280394
H    0.35709823  -2.95693022   1.38198319
O    0.60697553   3.47209374  -1.81025838
H    0.78133467   4.37655840  -2.07059356
H    0.57173055   3.50011749  -0.85411806
O   -2.76989046  -0.90686415  -0.00875491
H   -3.27474243  -0.23536788  -0.46750222
H   -3.01718524  -0.80685731   0.91052511
O    1.21630155  -2.79268692  -2.24730016
H    1.86768960  -2.78062348  -1.54602994
H    1.37194244  -3.61870536  -2.70523170
O    1.79269330   1.47489097   2.83316130
H    2.46278069   1.75588248   3.45626523
H    2.27254811   0.97148283   2.17547486
O    1.93318101   1.05525419  -1.69138991
H    1.69449030   1.96923994  -1.84594944
H    1.65467018   0.59709584  -2.48433032
K   -0.22219482   0.32022200   0.10272990
