49
Energy:   -882.45846251
O   -1.35267185  -1.31257587  -1.83945975
H   -2.20676377  -1.25733818  -1.41084845
H   -1.10279235  -2.23306178  -1.75885099
O   -2.47392307  -1.48451990   2.34952427
H   -1.83143412  -0.85217287   2.67135813
H   -2.95206308  -1.76004349   3.13163726
O   -0.94142122   3.43404531  -1.90607249
H   -1.15951703   4.13740817  -2.51758435
H   -0.86762658   3.86891050  -1.05655589
O    3.22075757   1.95323126  -0.09842092
H    2.63725147   1.94434625  -0.85715244
H    3.97271628   2.47426017  -0.38005689
O   -0.24009425   0.01837758   2.87176461
H    0.47032298  -0.55910019   3.15115436
H    0.17850114   0.86981812   2.74504146
O   -1.96461242   1.50903390  -0.06805822
H   -2.66953234   0.86700140  -0.15240286
H   -1.93672903   1.94790620  -0.91826141
O   -0.93342656   3.93764056   0.82359661
H   -1.39464591   4.52425849   1.42308636
H   -1.48168863   3.15393938   0.78547809
O   -3.49579024  -0.79716686  -0.13057035
H   -3.26844326  -1.07870922   0.75558939
H   -4.43202281  -0.98078174  -0.20793956
O    0.54895935  -0.39642941  -3.64586852
H    0.41165574  -0.54931311  -4.58075147
H   -0.25600339  -0.70675444  -3.23118164
O   -0.12257099  -3.73434598  -1.30490103
H   -0.16951981  -3.58132587  -0.36117835
H   -0.16931418  -4.68602211  -1.39633118
O    1.77430665  -1.88727201   2.96041073
H    2.37058968  -2.26007266   3.60979356
H    2.34967621  -1.50588755   2.29729112
O    1.12020731   1.61908727  -1.85942324
H    1.02047206   1.05709235  -2.62782837
H    0.46969775   2.31053861  -1.98175148
O   -0.23292492  -2.66135434   1.19997880
H   -1.04636395  -2.47402072   1.66843895
H    0.44616299  -2.62307139   1.87348150
O    1.82454857  -1.76039182  -1.56765472
H    1.34358180  -2.58797977  -1.56865145
H    1.63865446  -1.37375312  -2.42333325
O    1.00540601   2.11984269   1.58425296
H    0.49747633   2.90517033   1.38053801
H    1.85925002   2.27479339   1.18030675
O    2.87496277  -0.67613237   0.75933444
H    3.23973592   0.18089713   0.53871524
H    2.87354365  -1.15666981  -0.06850226
K    0.24751559  -0.12000855   0.10003944
