49
Energy:   -889.36709270
O   -2.91279311  -0.95412030  -2.20592353
H   -3.65254511  -1.44908635  -2.55807045
H   -2.62716327  -1.45873788  -1.44434061
O   -2.24869106  -1.24553849   2.63872446
H   -1.31176599  -1.24609530   2.83469114
H   -2.65796700  -1.61275335   3.42222832
O   -0.97988603   2.68305171  -2.71297899
H   -0.67859324   1.79838677  -2.91991487
H   -1.10873724   3.09830473  -3.56573578
O    3.28064134   1.88160199  -0.11268247
H    4.02869696   2.45200050  -0.28957277
H    2.52169780   2.38044842  -0.41498826
O    0.46054248  -1.05023906   2.55969147
H    1.10877691  -1.72564041   2.36004931
H    0.97735734  -0.25900669   2.71163095
O   -2.56533603   1.41656456  -0.80636063
H   -2.92659585   0.68684800  -1.30958717
H   -2.24421351   2.02888231  -1.46831164
O   -0.19264563   3.52759801   1.95542294
H   -0.40248351   4.28824419   2.49728759
H   -0.92878992   2.92978668   2.08559603
O   -1.99279580   1.44600699   1.88363601
H   -2.29676560   0.63025778   2.28161520
H   -2.51626900   1.53406738   1.08711041
O   -0.33518336  -0.02290494  -2.58510469
H   -1.21173828  -0.40206603  -2.64929336
H    0.25651538  -0.75709124  -2.74971005
O    0.43420716  -3.73227003  -0.39176148
H    1.08179185  -3.54280451   0.28718530
H    0.32788527  -4.68312241  -0.36334922
O    2.26825640  -2.80420647   1.43062301
H    3.09948735  -3.09377241   1.80670614
H    2.50542906  -2.07628496   0.85606991
O    0.76893377   2.87016751  -0.58949104
H    0.19771023   3.06148796  -1.33335392
H    0.39364666   3.36936041   0.13590394
O   -1.63621087  -1.91865883   0.00881164
H   -1.96240158  -1.91701943   0.90871651
H   -1.02991858  -2.65857435  -0.02534289
O    1.40086931  -2.17689832  -2.51061852
H    1.05477632  -2.81402979  -1.88570654
H    1.75416932  -2.70815034  -3.22418859
O    1.62155874   1.40974927   2.12720425
H    1.16702411   2.24150709   2.26065474
H    2.37501574   1.63300058   1.58067589
O    2.36823425  -0.72561938  -0.32688804
H    2.88293974   0.07782876  -0.40292211
H    2.32258119  -1.06680948  -1.22004926
K   -0.10954824   0.36815257   0.16713897
