49
Energy:   -884.29552069
O   -2.11165738  -2.79585795   1.92163769
H   -2.83841656  -3.38727201   2.11729641
H   -2.27516319  -2.02618801   2.46671188
O   -2.19977125  -0.39136168   3.26470825
H   -1.24335455  -0.35788808   3.24525404
H   -2.42878693  -0.18393420   4.17066493
O   -1.08550083   1.47642052  -2.18991198
H   -0.61976091   2.31259063  -2.20164740
H   -0.69181309   0.97242044  -2.90210980
O    3.97540495  -0.31085572  -0.41035663
H    4.85540342  -0.39623556  -0.77716015
H    3.48969908   0.18975901  -1.06587668
O    0.46326036  -0.47994457   2.69537883
H    1.31430349  -0.05094539   2.60640054
H    0.65558895  -1.41400994   2.61313866
O   -3.47439272   0.73860526  -1.01604878
H   -2.77695617   1.06874685  -1.58245908
H   -4.28221594   0.93637583  -1.48990561
O   -0.01676740   3.24554658   0.83658446
H    0.15798477   3.85163302   1.55655164
H   -0.85934012   2.84816252   1.05655941
O   -2.06841785   1.49399836   1.23497151
H   -2.73443368   1.31525425   0.57111513
H   -2.29454356   0.91582238   1.96353966
O    0.51287185  -0.01784140  -3.87616191
H    0.56553119  -0.20698373  -4.81300983
H    0.33769592  -0.86646004  -3.46947818
O    1.66593489  -1.89247174  -0.18697211
H    1.53059651  -2.47417670   0.56104843
H    2.59948473  -1.68250285  -0.16188013
O    0.65892007  -3.15256996   2.09622529
H    0.89814419  -3.95968203   2.55182795
H   -0.29173579  -3.20532648   1.99772638
O    0.73878021   3.52533409  -1.78102525
H    0.83420669   4.42180198  -2.10269427
H    0.50757181   3.62506420  -0.85753815
O   -1.77271353  -1.37196196  -0.42046431
H   -2.55263376  -0.84674739  -0.59964560
H   -2.02392046  -1.93171454   0.31424922
O    0.00949812  -2.17314779  -2.36899689
H    0.71413073  -2.29711492  -1.73310626
H   -0.77897940  -2.06936893  -1.83630091
O    2.61847652   0.87731613   1.65003328
H    3.14106183   1.55166992   2.08406486
H    3.22231716   0.46731185   1.03075562
O    2.11223657   1.08759062  -1.90618025
H    1.88042808   2.01449161  -1.96406986
H    1.72714160   0.69453397  -2.68940447
K    0.24851798   0.43904272   0.05107687
