91
Energy:   -776.65406995
C    2.40985280   5.95248956  -3.37717329
H    2.30692586   6.52449257  -2.47877539
H    2.06525037   6.53020531  -4.20927470
H    3.43892642   5.69752047  -3.52173245
C    1.57286234   4.66471660  -3.26453333
N    0.94968489   3.70591109  -3.18066776
C   -0.76151875   5.09246263   2.43768536
H   -0.49984362   6.09263385   2.71351835
H   -0.23625587   4.40103627   3.06292739
H   -1.81548811   4.95324535   2.55878957
C   -0.37719253   4.84846918   0.96650877
N   -0.09104419   4.66680498  -0.12884907
C    0.48993364  -1.44948432   0.15366343
H   -0.01059599  -2.15349736  -0.47779197
H    1.52212148  -1.71808914   0.23933033
H    0.41019643  -0.47034806  -0.27040408
C   -0.16049591  -1.45886598   1.54953354
N   -0.64477028  -1.46585105   2.58882229
C    2.98691396  -4.40676493  -2.63716545
H    2.82877873  -5.34018223  -2.13854178
H    3.64042412  -3.79532644  -2.05067885
H    3.42906295  -4.58457660  -3.59517712
C    1.63757792  -3.68743895  -2.82009275
N    0.63293591  -3.15186806  -2.95629044
C    4.99983232  -3.07340377   0.80956482
H    5.30486119  -2.41686955   0.02164325
H    4.54384132  -3.94590445   0.39038244
H    5.85446838  -3.35970295   1.38621816
C    3.98706608  -2.35051544   1.71694401
N    3.23301558  -1.81229221   2.39252906
C   -5.12524145   2.19133812  -0.44027046
H   -4.38042791   1.66133761  -0.99637516
H   -5.84660463   2.60450944  -1.11393485
H   -5.61191189   1.51896744   0.23498404
C   -4.45854960   3.32719799   0.35781746
N   -3.96216721   4.17289730   0.95203019
C   -3.89444732  -2.86796822   2.19157404
H   -2.91837760  -2.99447386   2.61131732
H   -4.18172850  -3.76311909   1.68062049
H   -4.59526605  -2.66319532   2.97376344
C   -3.87713278  -1.69226435   1.19707888
N   -3.86424131  -0.81689939   0.45663202
C   -2.44550400  -1.67110957  -2.52262593
H   -2.10096534  -2.33684434  -3.28616409
H   -3.46840059  -1.41650761  -2.70636351
H   -2.36266690  -2.14891324  -1.56882261
C   -1.58839764  -0.39170330  -2.53202077
N   -0.95024299   0.56087283  -2.53901566
C   -2.43182405   1.42586648   2.94273124
H   -3.31476620   2.02436562   3.02706463
H   -1.71206117   1.74815200   3.66589963
H   -2.67854332   0.39954943   3.11795109
C   -1.84187550   1.57775451   1.52834418
N   -1.40263199   1.69084206   0.47526873
C    3.80666481   1.38821618   1.03701649
H    4.50842883   0.76233651   0.52642655
H    3.45527802   0.88770099   1.91503185
H    4.28309047   2.30490274   1.31559041
C    2.61668460   1.69003988   0.10725870
N    1.73069024   1.91476135  -0.58498824
C   -3.36039215   6.25350044  -2.00545954
H   -4.11446424   6.41834454  -2.74647363
H   -2.58344856   6.98032749  -2.11939015
H   -3.79254437   6.34317329  -1.03072761
C   -2.77133283   4.84109616  -2.17786389
N   -2.33275139   3.78949697  -2.30622678
C    1.67785540  -0.02449929   4.81392041
H    2.73159245  -0.20631936   4.77545132
H    1.15239053  -0.90805900   4.51709050
H    1.39754733   0.23867598   5.81245195
C    1.32097181   1.13007760   3.85935960
N    1.05525575   1.98971257   3.14864570
C   -0.81493160  -6.06797124  -1.64102489
H    0.19790309  -6.31868827  -1.40394465
H   -0.86004230  -5.66397484  -2.63079812
H   -1.42212118  -6.94732839  -1.58670267
C   -1.33383255  -5.02296014  -0.63589127
N   -1.72017790  -4.24490187   0.11247640
C    0.75017346  -4.59020963   2.90377780
H   -0.30256813  -4.44275725   2.78174042
H    1.17242730  -3.74627452   3.40813314
H    0.92186860  -5.47393615   3.48209201
C    1.41049304  -4.74516124   1.52118312
N    1.90213098  -4.86052976   0.49177854
C    2.24382806   0.05274752  -3.69763668
H    2.86519583   0.06772157  -4.56860053
H    1.95080895   1.05193339  -3.45133098
H    1.37231087  -0.53702065  -3.89136432
C    3.02558608  -0.55806044  -2.51977079
N    3.60764046  -1.01283473  -1.64279611
Na  -0.38156127   2.63706270  -1.47683075
