91
Energy:   -777.22462591
C    0.70214511   5.45273733  -3.65849776
H    1.76638854   5.40390628  -3.55899078
H    0.31929368   6.22241854  -3.02138338
H    0.44861682   5.67193405  -4.67465488
C    0.08634011   4.09977016  -3.25617448
N   -0.37215471   3.09242460  -2.95662652
C    3.26770463   6.21388466   1.60700104
H    4.21326741   6.62393988   1.31948419
H    3.42336709   5.39254212   2.27488181
H    2.68656274   6.96688762   2.09706200
C    2.51917207   5.72206873   0.35423766
N    1.96185554   5.35588941  -0.57850162
C    0.34719920  -1.70181865   0.38730604
H    0.04435871  -0.97786374   1.11468291
H    0.35100932  -1.25195816  -0.58352356
H    1.33040930  -2.05301104   0.62153007
C   -0.63750993  -2.88578297   0.40058850
N   -1.37067064  -3.76729822   0.41047790
C    2.21630781  -4.64864669  -1.18598168
H    2.74666406  -5.43907939  -1.67469281
H    1.61424962  -5.05543090  -0.40051899
H    2.91556229  -3.95101662  -0.77457609
C    1.31309968  -3.92961381  -2.20520039
N    0.64062017  -3.39426114  -2.96405505
C    4.36391732  -1.94897278   1.93667463
H    5.21856775  -1.44735865   1.53312031
H    3.94442072  -2.59355122   1.19273893
H    4.65890585  -2.52910929   2.78598170
C    3.31305627  -0.90824630   2.36583595
N    2.53064245  -0.13337813   2.68536606
C   -6.00033548   0.55517157  -2.28560593
H   -6.06765856  -0.01981222  -3.18547338
H   -6.79001427   1.27685030  -2.26355360
H   -6.08718766  -0.09452009  -1.43987752
C   -4.64188879   1.27911212  -2.23942497
N   -3.63046349   1.81811876  -2.20504115
C   -3.88779201  -1.55874691   1.60080533
H   -3.23756510  -2.29752239   2.02070524
H   -4.50347919  -2.01016963   0.85110811
H   -4.50675536  -1.14894850   2.37142113
C   -3.04665739  -0.43555261   0.96635509
N   -2.42039443   0.40071660   0.49397805
C   -1.80936705  -1.57902580  -4.75502453
H   -1.52616584  -1.05391303  -5.64325527
H   -2.87144515  -1.70815146  -4.74033600
H   -1.33334148  -2.53718783  -4.74004865
C   -1.37348674  -0.76991271  -3.51932863
N   -1.04895405  -0.16749124  -2.59929686
C   -0.46766511   1.69982025   3.07654918
H   -0.08545296   0.87830892   2.50739789
H   -1.45128240   1.94433291   2.73360651
H   -0.50762227   1.42912422   4.11096988
C    0.45541881   2.91986909   2.90048982
N    1.14269674   3.82825092   2.76940562
C    3.32159200   2.19261952   0.34271880
H    3.68148352   2.97490980  -0.29241913
H    3.94381831   1.32913179   0.23261681
H    3.34412970   2.52100922   1.36083046
C    1.87563649   1.83684684  -0.05001321
N    0.79905688   1.57195790  -0.34242005
C   -1.00857495   6.17514444   1.09436467
H   -1.90130040   6.68730378   1.38699797
H   -0.49696728   6.74759743   0.34907663
H   -0.37348967   6.05016728   1.94638961
C   -1.37409892   4.79398468   0.51956910
N   -1.64624813   3.76564846   0.09160766
C    1.12260547  -1.80361965   5.24425394
H    1.54829364  -0.82469151   5.31766674
H    1.85082433  -2.48047124   4.84869318
H    0.81884188  -2.13421393   6.21550787
C   -0.10096777  -1.76257539   4.31002489
N   -1.01197366  -1.73201608   3.61444891
C   -2.98479091  -4.57548919  -2.32270277
H   -1.94792703  -4.47650393  -2.56768317
H   -3.49741823  -5.05698312  -3.12909964
H   -3.08683468  -5.16261070  -1.43401020
C   -3.59243399  -3.17994410  -2.08855801
N   -4.04485188  -2.14089734  -1.91422658
C   -0.36298401  -5.46179786   3.19244869
H   -0.68961833  -6.10208261   2.39982922
H   -1.12530383  -4.74219374   3.40677904
H   -0.16907571  -6.04716404   4.06688857
C    0.92521522  -4.73346742   2.76621224
N    1.88433810  -4.19119230   2.44885982
C    2.26922637  -0.14795565  -3.46959065
H    3.05413727   0.18357597  -4.11681692
H    1.63252404   0.67769841  -3.22916474
H    1.69809320  -0.90734454  -3.96156069
C    2.87792271  -0.72048667  -2.17603084
N    3.33112480  -1.14676204  -1.21291676
Na  -1.43051430   1.77214060  -1.22868852
