91
Energy:   -776.15670372
C    3.33104160   2.11873331   4.19692440
H    4.02970235   1.99491869   3.39602285
H    3.86181816   2.29294671   5.10951687
H    2.69484455   2.95364410   3.98937588
C    2.47721757   0.84454707   4.33488791
N    1.84150676  -0.10414251   4.43760801
C   -5.68609397   1.23382737  -1.59340264
H   -5.31221430   2.21449833  -1.38507926
H   -5.84652732   0.71052632  -0.67399183
H   -6.61081053   1.31041216  -2.12625641
C   -4.66239469   0.46533036  -2.44958728
N   -3.90020404  -0.10685059  -3.08705567
C   -3.48230067   3.28301571   3.39062156
H   -4.09797871   4.15555975   3.32348279
H   -2.46261691   3.57585139   3.52987449
H   -3.79855821   2.68634288   4.22059855
C   -3.60859269   2.46450143   2.09228235
N   -3.70262283   1.85508034   1.12560980
C   -0.04468399  -4.16803120  -0.88892769
H   -0.46445304  -3.28481928  -0.45461119
H   -0.12859325  -4.98012153  -0.19728643
H   -0.57272790  -4.40908018  -1.78779593
C    1.44022741  -3.92346238  -1.21576742
N    2.54581145  -3.74136977  -1.45911446
C   -1.35808054   4.21698354  -0.67232709
H   -0.49809388   4.66692902  -1.12274044
H   -1.24085286   4.20938342   0.39120430
H   -2.23122655   4.77881304  -0.93090544
C   -1.50786141   2.77171985  -1.18260010
N   -1.61938008   1.69565533  -1.56252155
C    3.16633766  -4.09615028  -4.72715281
H    3.92722581  -4.00968947  -3.97984168
H    3.59571305  -4.47455185  -5.63122589
H    2.40559402  -4.76665125  -4.38569029
C    2.54814900  -2.71095119  -4.99298405
N    2.08787944  -1.67960750  -5.19090750
C    3.32011608  -0.29726779  -2.25774731
H    3.48067595  -0.11520142  -3.29984738
H    3.87343508  -1.16245620  -1.95743714
H    3.64866006   0.55001304  -1.69288173
C    1.81980375  -0.53353417  -2.00310812
N    0.70275303  -0.70944523  -1.81351766
C    1.60121040   1.87595255  -5.10468604
H    1.42128080   2.61898957  -5.85329910
H    2.30363696   1.15895778  -5.47538068
H    1.99732410   2.34251838  -4.22701335
C    0.27909540   1.16696391  -4.75691165
N   -0.70527931   0.63908963  -4.49797780
C   -1.03759709  -2.65497290  -6.46674771
H   -1.97480276  -2.42818829  -6.93055203
H   -0.72464983  -3.63639994  -6.75616794
H   -0.30392644  -1.94063583  -6.77714910
C   -1.19506920  -2.59696320  -4.93591871
N   -1.31231435  -2.55377234  -3.79614694
C   -0.31481370  -2.84292049   4.98229636
H   -1.19926054  -2.35729917   5.33842261
H    0.54762686  -2.31919453   5.33839535
H   -0.29281633  -3.85109425   5.34006847
C   -0.31480089  -2.84460948   3.44229728
N   -0.31479135  -2.84586701   2.29569797
C   -3.71960246  -1.67539147   1.84489327
H   -4.03028214  -0.70736390   2.17851121
H   -3.05394370  -2.10404818   2.56465082
H   -4.57676201  -2.30580521   1.73195474
C   -2.99683668  -1.54435756   0.49136464
N   -2.45870470  -1.44679686  -0.51639894
C    3.06711370  -2.21340921   1.66700590
H    3.04076913  -2.35198843   2.72766699
H    3.88452320  -2.76755211   1.25510004
H    2.14966750  -2.55998303   1.23912956
C    3.24900855  -0.71759733   1.34910486
N    3.38443754   0.39610261   1.11241309
C   -0.09927443   0.61349681   1.38063325
H    0.19217285  -0.16857522   2.05020177
H    0.53442561   0.59958872   0.51858342
H   -1.11505072   0.46472057   1.07903209
C    0.03116375   1.97324218   2.09174395
N    0.12828091   2.98563441   2.62119819
C   -0.67241108   1.58152467   6.02208474
H   -0.19148950   2.39574905   5.52143189
H    0.06680496   0.95646770   6.47789450
H   -1.32958229   1.96390112   6.77495481
C   -1.48266329   0.75892730   5.00305338
N   -2.08593289   0.14646616   4.24433821
C    3.13870114   3.77851545   0.60191499
H    3.57669084   4.71833218   0.33769968
H    3.90997860   3.09161396   0.88155136
H    2.46825079   3.91612294   1.42438664
C    2.36320632   3.21645368  -0.60402628
N    1.78581518   2.79797314  -1.50190437
Na  -1.58017187  -0.49836794  -2.54509279
