91
Energy:   -776.30473872
C    2.35444636   5.07148688  -0.30212425
H    3.23951104   5.55551812   0.05463119
H    2.07067555   4.29839767   0.38103480
H    1.56293721   5.78733068  -0.37945487
C    2.62821462   4.45723323  -1.68752794
N    2.83204754   3.99989346  -2.71902396
C    4.94610156   1.34589439  -1.30420066
H    4.46732228   0.41064137  -1.50661694
H    6.00521364   1.20138714  -1.25625955
H    4.71589907   2.04071201  -2.08467128
C    4.44217476   1.89992506   0.04142477
N    4.06697835   2.31242607   1.04330407
C   -0.67897685  -1.89707216   0.25584972
H   -1.11037638  -2.82934957   0.55527159
H   -1.27521516  -1.09146914   0.63055326
H    0.31281020  -1.82007248   0.64996719
C   -0.62737844  -1.82557759  -1.28162423
N   -0.58896107  -1.77234663  -2.42634347
C    2.27636520  -4.28583269  -0.98069149
H    1.21429271  -4.38192920  -1.06825660
H    2.60784998  -4.78557283  -0.09453307
H    2.74600117  -4.72616996  -1.83535180
C    2.65194134  -2.79451417  -0.89999676
N    2.93157485  -1.68415975  -0.83991587
C    3.48312993  -0.82143445   2.44098644
H    4.03216906  -0.28892199   3.18924221
H    3.99719304  -0.75301036   1.50506104
H    3.39639926  -1.84912987   2.72597591
C    2.07788225  -0.20721960   2.30091837
N    1.03161147   0.25009128   2.19663132
C   -4.43960003   0.10703308   2.45794243
H   -4.66945411   0.05903981   1.41402484
H   -5.18455195   0.68756861   2.96085816
H   -4.42316356  -0.88222002   2.86538228
C   -3.06026189   0.76435643   2.65017221
N   -2.03328195   1.25376355   2.79329602
C   -4.41132921  -4.14267884   1.11972975
H   -3.55834134  -4.78741369   1.07937082
H   -5.27559129  -4.67277096   0.77774656
H   -4.56683334  -3.81959440   2.12786367
C   -4.17129267  -2.91680414   0.21905574
N   -3.99257454  -2.00408470  -0.45153700
C   -3.08012063   0.62729639  -2.76312294
H   -2.28252339   0.32225013  -3.40785978
H   -3.58407220   1.46793863  -3.19236940
H   -3.77159517  -0.18057929  -2.64438393
C   -2.50754345   1.01917631  -1.38828276
N   -2.08123371   1.31094873  -0.36465176
C    3.27690159   3.84822768   4.11300118
H    4.10957746   3.50704988   3.53408083
H    3.25728760   3.33042952   5.04916326
H    3.37149981   4.89944521   4.28876232
C    1.97054723   3.57154307   3.34587414
N    0.99790703   3.36553879   2.77471318
C    0.76822533   4.22956428  -5.35198329
H    0.32292855   4.20664822  -6.32465271
H    1.67542500   3.66229392  -5.36158507
H    0.98367824   5.24231015  -5.08212232
C   -0.20666240   3.62139345  -4.32664327
N   -0.93251063   3.16858263  -3.56323101
C   -2.52653988   5.33607289  -1.55909659
H   -1.94230415   5.95151803  -2.21086041
H   -3.26019378   5.93708210  -1.06367861
H   -3.01565237   4.57509363  -2.13056718
C   -1.60753140   4.68052807  -0.51158315
N   -0.92328781   4.19244516   0.26833822
C   -0.38390427  -1.46541565   4.78035245
H   -0.60480354  -1.68349411   5.80433754
H   -0.39038721  -0.40577995   4.63192989
H    0.58179640  -1.85428570   4.53316550
C   -1.44653283  -2.11694794   3.87595972
N   -2.23770810  -2.60204335   3.20259822
C   -2.64818356  -4.45997876  -3.11472079
H   -3.13128730  -5.30775488  -3.55379551
H   -1.90252845  -4.08729988  -3.78554715
H   -3.37219618  -3.69514410  -2.92568967
C   -1.98402313  -4.87698479  -1.78935409
N   -1.48952550  -5.18746473  -0.80255834
C   -0.44356378  -5.68766597   2.41361170
H   -0.33899768  -6.28184305   1.52991508
H   -1.42861751  -5.27135321   2.44899423
H   -0.28406555  -6.30028543   3.27625694
C    0.59412386  -4.54995822   2.39298553
N    1.36672948  -3.70288309   2.37762841
C    1.57553114   0.67460150  -3.14774839
H    2.23231827   1.35392190  -3.64979883
H    0.66228613   0.58862434  -3.69864816
H    2.04159258  -0.28601161  -3.07768927
C    1.27385818   1.20319651  -1.73311743
N    1.04924895   1.59675952  -0.67986039
Na  -0.32692594   2.04934339   1.24536924
