91
Energy:   -776.02756366
C    4.24111268   4.88685388   1.54800218
H    4.74868877   5.70370790   1.07894333
H    4.92596325   4.07774124   1.69365767
H    3.85577281   5.20281836   2.49488059
C    3.07950896   4.42095858   0.65066257
N    2.21464218   4.07407835  -0.01744755
C    4.27199649   1.67595340  -1.94486420
H    3.87850196   0.75873456  -2.33057373
H    5.17724572   1.92041728  -2.46028669
H    3.55716835   2.45908665  -2.08846830
C    4.56427097   1.51709088  -0.44122252
N    4.78188260   1.39881052   0.67830707
C   -0.76141419  -1.45119136  -0.94857753
H   -0.10019118  -1.95115640  -0.27202801
H   -1.75974241  -1.48982044  -0.56550097
H   -0.45899965  -0.43021847  -1.05373885
C   -0.71148548  -2.14545742  -2.32229576
N   -0.67431129  -2.66237005  -3.34509142
C    2.48800336  -4.19851844  -2.39851780
H    2.18766030  -4.72357379  -1.51590175
H    3.44398036  -4.55689198  -2.71879186
H    1.76807264  -4.36186178  -3.17306141
C    2.58054282  -2.69194623  -2.09310556
N    2.64944266  -1.57023474  -1.86571226
C    2.56630949  -1.20716711   1.48302539
H    2.65344659  -1.33408769   2.54189199
H    3.54167000  -1.10937306   1.05406470
H    2.07480528  -2.05875409   1.06097997
C    1.74450434   0.06040421   1.18386113
N    1.13263306   1.00416868   0.96111975
C   -4.22650065   0.24562733   0.24319091
H   -4.37130471  -0.24141337  -0.69846897
H   -5.05633556   0.89112028   0.44221846
H   -4.15268706  -0.48938369   1.01727711
C   -2.92998320   1.07544244   0.19792076
N   -1.96466703   1.69327751   0.16421508
C   -4.04847829  -4.27056910   1.29608338
H   -3.13998207  -4.80436686   1.48208003
H   -4.87024888  -4.95582201   1.29153960
H   -4.19696252  -3.54067426   2.06426633
C   -3.95959192  -3.56654912  -0.07068473
N   -3.89341198  -3.04237425  -1.08830572
C   -4.02009095  -1.60782510  -4.19883823
H   -4.80871392  -1.91232136  -3.54289921
H   -3.31667475  -2.40697305  -4.30592368
H   -4.42814340  -1.36109195  -5.15670829
C   -3.31016512  -0.37451154  -3.61015922
N   -2.78159308   0.54374646  -3.17186093
C    4.06651703   1.11000260   4.19972982
H    4.84032087   1.47341902   4.84320189
H    4.49617026   0.77670888   3.27820256
H    3.56226179   0.29402906   4.67387424
C    3.06018728   2.24104236   3.91750742
N    2.31092904   3.08315288   3.70738002
C   -3.12969688   3.89896356  -3.41142770
H   -2.74271969   3.36945687  -4.25686931
H   -3.52115475   4.84241941  -3.73009822
H   -3.90961061   3.32431433  -2.95710191
C   -2.00075329   4.13025196  -2.38986418
N   -1.16020347   4.30245668  -1.62926369
C    0.29323020   5.96346957   3.67890721
H   -0.54675898   6.24246500   4.28013921
H    0.69982312   6.83410989   3.20819848
H    1.03988959   5.51081148   4.29737265
C   -0.15763535   4.96034097   2.60092147
N   -0.49332524   4.21346613   1.79831208
C   -0.96154821   1.42169852   3.89411750
H   -1.84631800   1.22900256   4.46416211
H   -1.19603293   1.39172081   2.85055756
H   -0.57850644   2.38852008   4.14597894
C    0.09804969   0.35067995   4.21313398
N    0.88696849  -0.44674205   4.45065625
C   -1.67297816  -5.80552555  -2.23931882
H   -1.80915698  -6.85923585  -2.11262969
H   -1.06738107  -5.62543600  -3.10286905
H   -2.62569215  -5.33563130  -2.36751602
C   -0.97739236  -5.22446019  -0.99427928
N   -0.45949712  -4.79183062  -0.06729076
C   -0.16772258  -3.51268563   3.13071138
H    0.37266248  -3.10035072   3.95706729
H    0.51691385  -3.77084231   2.34998916
H   -0.69234550  -4.38914343   3.44928887
C   -1.17577474  -2.47314113   2.60651860
N   -1.92631539  -1.69915299   2.21623325
C    0.70493676   0.33478927  -4.45407683
H    1.10564969   0.92355916  -5.25262511
H   -0.30338776   0.06060493  -4.68430213
H    1.29566360  -0.54887224  -4.33126305
C    0.72923823   1.15383472  -3.15016963
N    0.74733178   1.76365129  -2.17935145
Na   0.10901750   2.90056829  -0.13099800
