91
Energy:   -777.97682799
C   -2.64733373   4.39436791   1.14810493
H   -2.82371575   5.44399151   1.25801330
H   -2.88594095   3.89480139   2.06374623
H   -3.26214562   4.00984888   0.36130727
C   -1.16518730   4.15611641   0.80447990
N   -0.06166190   3.97872734   0.54863545
C    3.30401764   2.00941878  -4.46396903
H    2.94491033   2.27650864  -5.43587701
H    3.33659193   0.94351769  -4.37626001
H    4.28679623   2.40895638  -4.32463115
C    2.35951289   2.58407537  -3.39192398
N    1.65628618   3.01193332  -2.59373771
C    0.38091580   0.62125165   4.33872353
H    1.28275934   0.71250220   4.90727585
H   -0.02088415  -0.36265702   4.46273808
H   -0.33102981   1.34299845   4.68094291
C    0.68589684   0.86723665   2.84940223
N    0.91296909   1.05038366   1.74053482
C    3.64406798   4.14991977   3.05295203
H    2.86002791   4.83194183   3.30795647
H    4.58074978   4.66714921   3.05295213
H    3.67449957   3.35696832   3.77072708
C    3.38057877   3.56515035   1.65287411
N    3.18439908   3.12976295   0.61045246
C   -4.07673529  -0.62954752   3.72947129
H   -4.97915496  -0.80140077   3.18083171
H   -4.31724353  -0.26838114   4.70753760
H   -3.52960468  -1.54537265   3.81200314
C   -3.21923103   0.41608854   2.99263231
N   -2.58078014   1.19461212   2.44402219
C    2.44385941  -2.63832481   4.27814072
H    1.45438995  -2.81247168   4.64627552
H    2.79747782  -1.69483220   4.63824460
H    3.09366230  -3.41674908   4.61977055
C    2.42377914  -2.62525848   2.73832708
N    2.40882846  -2.61553001   1.59186583
C    1.94837431  -2.39519480  -1.81892561
H    0.92172529  -2.64496830  -1.65009089
H    2.57273260  -3.03939453  -1.23575966
H    2.17938300  -2.51810024  -2.85643626
C    2.19489287  -0.93164706  -1.40800396
N    2.37843715   0.15803076  -1.10205412
C   -0.22616976   5.84572732  -2.78180810
H    0.32530300   5.57274649  -3.65717056
H    0.41465635   5.79535729  -1.92641120
H   -0.59764049   6.84322489  -2.89092811
C   -1.40755079   4.87545827  -2.59602103
N   -2.28714267   4.15304886  -2.45769411
C    4.98747593  -0.08152476   1.10875777
H    4.82286244   0.71031464   0.40819161
H    4.54141285  -0.98180161   0.74075179
H    6.03913813  -0.23120078   1.23722098
C    4.35278515   0.28996637   2.46181430
N    3.88022901   0.56655840   3.46922638
C   -3.55342831   1.08115216  -1.11227346
H   -3.85465771   0.19075404  -1.62349966
H   -3.97467739   1.93380496  -1.60261161
H   -3.89835838   1.04527192  -0.10003093
C   -2.01715522   1.18711810  -1.12764209
N   -0.87333007   1.26601456  -1.13908473
C   -4.20647923  -4.02853226  -0.88973077
H   -4.46539398  -3.79312992  -1.90089301
H   -4.89143015  -4.75560651  -0.50618890
H   -3.21258065  -4.42363617  -0.85878544
C   -4.27848933  -2.75223573  -0.03096322
N   -4.33210413  -1.80197494   0.60842825
C    0.60391748  -5.70664690   1.61227045
H    1.65036000  -5.48413325   1.63086891
H    0.46303567  -6.76503698   1.68199729
H    0.12264644  -5.22753157   2.43914757
C   -0.00674358  -5.19317667   0.29506074
N   -0.46140849  -4.81087475  -0.68566176
C   -0.83447273  -3.66969401  -4.06176604
H   -0.49905992  -4.45311729  -3.41473714
H    0.01017000  -3.20119378  -4.52218464
H   -1.47109664  -4.07954982  -4.81782642
C   -1.61660942  -2.62655238  -3.24218216
N   -2.19894574  -1.84988602  -2.63196470
C   -0.96625894  -1.63639771   0.71577969
H   -1.63487435  -0.80154596   0.68617949
H   -1.28864998  -2.37661778   0.01361351
H    0.02143512  -1.31145576   0.46324798
C   -0.96149154  -2.24027114   2.13243566
N   -0.95794200  -2.68988236   3.18720043
C   -1.40634809   1.17636450  -4.58969832
H   -1.56813610   1.41608168  -5.61987330
H   -1.26420607   2.07821921  -4.03170833
H   -2.25674498   0.65102759  -4.20793223
C   -0.15413451   0.28944523  -4.45956245
N    0.77819543  -0.37090648  -4.36267038
Na   1.21821553   2.14002699  -0.37595992
