91
Energy:   -776.42319846
C   -1.89822832   6.15177704  -1.35890160
H   -2.80812504   5.62993838  -1.14754279
H   -1.96217793   6.60238770  -2.32728147
H   -1.74322412   6.91148676  -0.62153200
C   -0.71970564   5.16087627  -1.33061816
N    0.15775807   4.42310560  -1.30955986
C    1.64094968   2.76544727   3.89132774
H    0.67558428   2.99306035   4.29277775
H    2.30788061   3.58000894   4.08261684
H    2.01959604   1.87819765   4.35426849
C    1.52550433   2.54247051   2.37193518
N    1.43955002   2.37645417   1.24067836
C    5.02472349  -2.84645042  -2.13659009
H    5.95103177  -3.06958718  -2.62348138
H    4.41114312  -3.72285755  -2.11845830
H    5.21700339  -2.52488001  -1.13433264
C    4.29788845  -1.72674816  -2.90442971
N    3.75672672  -0.89307893  -3.47612121
C   -3.58822793  -0.74680534  -1.51878914
H   -4.16720091   0.13762118  -1.35301766
H   -3.05707536  -0.99820252  -0.62459928
H   -4.23813309  -1.55360566  -1.78636271
C   -2.58402287  -0.49670461  -2.65923722
N   -1.83634656  -0.31049324  -3.50835266
C    0.64471587  -2.58910072  -2.45776081
H    0.83212169  -3.39854811  -1.78353966
H    1.29077722  -2.67489129  -3.30637368
H   -0.37479552  -2.62275020  -2.78081394
C    0.91248096  -1.25219480  -1.74181080
N    1.11184424  -0.25680757  -1.20875348
C   -4.19835377  -1.01347839   4.60100714
H   -3.52977322  -0.28842510   5.01597456
H   -3.92699179  -1.98861820   4.94794245
H   -5.19943231  -0.79183873   4.90697561
C   -4.11036345  -0.97253608   3.06406816
N   -4.04485066  -0.94205268   1.91974723
C   -2.37106451   2.92325921  -4.82264150
H   -2.31237469   1.88086468  -5.05688353
H   -1.38544756   3.33889389  -4.79606852
H   -2.94959919   3.42476373  -5.57009714
C   -3.04142935   3.10353359  -3.44797349
N   -3.54054644   3.23775606  -2.42447067
C   -0.50780653  -0.76848200   1.72765956
H    0.43415810  -0.45485676   1.32860816
H   -1.24286764  -0.76693375   0.95011094
H   -0.41438707  -1.75627974   2.12819359
C   -0.94004789   0.19959587   2.84461643
N   -1.26187124   0.92037384   3.67624160
C    0.34706385  -1.51706095   5.94474831
H    0.04178041  -0.49192393   5.91652968
H    1.35184902  -1.59997926   5.58637642
H    0.29655244  -1.87667396   6.95124032
C   -0.58699874  -2.35557913   5.05255195
N   -1.28245080  -2.97989403   4.38827121
C    5.01617974   2.30342927  -3.56667368
H    5.09648154   3.29796827  -3.95312418
H    4.64391148   1.65299982  -4.33038629
H    5.98035493   1.96529880  -3.24897401
C    4.04869996   2.29482387  -2.36854647
N    3.32836728   2.28841676  -1.47648630
C   -3.53490518   2.44351046   1.04689743
H   -3.92492475   3.36258540   0.66207776
H   -3.29348618   2.56424457   2.08229070
H   -4.26840734   1.67195495   0.93930679
C   -2.26533436   2.05742523   0.26540646
N   -1.32008118   1.76996722  -0.31644909
C    4.01277164  -0.17160734   1.00155818
H    3.54095264  -0.56661624   0.12619827
H    4.98869361  -0.59819728   1.10401025
H    4.09570895   0.89149916   0.91309881
C    3.16787098  -0.51919845   2.24128529
N    2.53880404  -0.77799582   3.16431847
C   -3.39510349  -4.34349689   1.66548975
H   -4.31189794  -3.81179592   1.51824101
H   -3.06180237  -4.20750587   2.67311860
H   -3.55318845  -5.38530713   1.47964126
C   -2.32778320  -3.80504534   0.69466674
N   -1.53311473  -3.40414368  -0.02815512
C    1.32238332  -4.20721288   2.33060827
H    0.27779643  -4.18290782   2.10007047
H    1.51296650  -3.59475374   3.18703744
H    1.61826003  -5.21410801   2.53921858
C    2.12567041  -3.67450009   1.12954751
N    2.72375416  -3.27787120   0.23530319
C    1.02864796   0.14958624  -5.46557274
H    2.02488386  -0.24026295  -5.48635336
H    0.79675257   0.58649473  -6.41437967
H    0.33974941  -0.64288791  -5.25989678
C    0.92006776   1.22242831  -4.36610913
N    0.83922487   2.02120800  -3.54750850
Na   0.93631143   2.14801982  -1.11884855
