91
Energy:   -776.04093413
C   -0.28905910   2.83859885  -5.75320831
H    0.31392583   3.30020909  -6.50701554
H   -1.31076459   3.12646291  -5.88793489
H   -0.20499126   1.77475835  -5.83115116
C    0.19259153   3.29105197  -4.36220189
N    0.55120232   3.62792389  -3.32653439
C    0.56352024   4.67622049   3.08576255
H    0.59781015   5.67460326   3.46911124
H    1.44431166   4.14828021   3.38640292
H   -0.30076106   4.17605855   3.47015163
C    0.49040605   4.71899434   1.54809396
N    0.43596922   4.75084142   0.40322979
C    0.33952280  -1.20458261   0.43215749
H    1.34979588  -0.99352628   0.71447597
H   -0.08183820  -0.34838689  -0.05187029
H    0.32338923  -2.03771040  -0.23906296
C   -0.48485154  -1.54154711   1.68852601
N   -1.09863571  -1.79243250   2.62394948
C    1.95163172  -3.17731494  -2.65649709
H    0.92236311  -2.99271423  -2.42971772
H    2.20427990  -4.17889150  -2.37736917
H    2.11440093  -3.04772922  -3.70607454
C    2.83512017  -2.18798526  -1.87401710
N    3.49291748  -1.45138435  -1.29142517
C    4.96964651  -3.24955668   1.14686254
H    5.45411611  -2.52996768   0.52045927
H    4.52062799  -4.00690040   0.53882311
H    5.69001757  -3.69674924   1.79953662
C    3.88182569  -2.55159387   1.98417598
N    3.07189364  -2.03192884   2.60759389
C   -4.67528519   2.73559700  -0.64757909
H   -4.78195206   1.77168024  -1.09967072
H   -5.51775026   3.34414991  -0.90216708
H   -4.62201372   2.62699340   0.41556084
C   -3.38591350   3.40336447  -1.16061636
N   -2.42591766   3.90054770  -1.54259593
C   -4.06214868  -2.91078062   0.98247048
H   -3.31392336  -3.13993986   1.71222736
H   -4.05179106  -3.65612040   0.21483748
H   -5.02404677  -2.89451892   1.45085783
C   -3.76952631  -1.53163275   0.36285504
N   -3.55165566  -0.50479447  -0.09847683
C   -1.95336007  -1.29447028  -3.25331993
H   -1.12282393  -1.92963462  -3.48064386
H   -2.51677906  -1.11144669  -4.14436454
H   -2.57866377  -1.77103139  -2.52752114
C   -1.43783827   0.04216851  -2.68831196
N   -1.05400886   1.03735685  -2.26763784
C   -2.61187584   1.30199134   3.00820404
H   -3.34460985   0.57092851   2.73700632
H   -3.10120319   2.16901940   3.40027569
H   -1.95916696   0.89408303   3.75149472
C   -1.79243244   1.69338675   1.76445080
N   -1.18231957   1.98479843   0.83841997
C    3.83066347   1.11521481   1.06662237
H    4.46785078   0.42181393   0.55859900
H    3.40651191   0.64422875   1.92869352
H    4.40161356   1.96759469   1.37053622
C    2.70230790   1.56427253   0.11964777
N    1.86219590   1.89861642  -0.58541786
C   -2.59303147   6.86850888   0.52233979
H   -3.51662482   7.18282043   0.08292682
H   -1.90109776   6.60678473  -0.25072379
H   -2.18745689   7.66618584   1.10895705
C   -2.84333943   5.64476163   1.42311090
N   -3.02970508   4.73362618   2.09377594
C    1.19500464  -0.65444690   5.11323136
H    0.42383053  -1.35940046   4.88251260
H    1.03249109  -0.25592066   6.09285643
H    2.14637244  -1.14302702   5.08024845
C    1.16955842   0.48977156   4.08283503
N    1.15061255   1.34169421   3.31565812
C   -0.69484316  -6.39988099  -1.56251904
H    0.35199454  -6.48551759  -1.35831968
H   -0.87884830  -6.64004047  -2.58885457
H   -1.23708937  -7.07616307  -0.93521474
C   -1.15624868  -4.95763495  -1.28210630
N   -1.49978607  -3.88381722  -1.07332626
C    0.66963949  -4.72142851   2.88137843
H    0.93996558  -5.63342260   3.37136901
H   -0.39648982  -4.64717606   2.82890033
H    1.05825285  -3.89122951   3.43332804
C    1.25568956  -4.71057273   1.45729013
N    1.69203048  -4.70249010   0.39699167
C    3.45310585   1.33386666  -3.58176396
H    4.10261731   1.50306352  -4.41507510
H    3.99251141   0.83329371  -2.80499665
H    3.08988792   2.27170260  -3.21647563
C    2.26471428   0.46101625  -4.02612603
N    1.37990275  -0.18886056  -4.35697378
Na  -0.20814261   2.98739521  -1.12490307
