91
Energy:   -775.83214542
C    3.14954446   4.81564897  -1.72926892
H    3.49492603   5.52732304  -2.44977691
H    3.94328051   4.14065219  -1.48583202
H    2.83339211   5.32823325  -0.84484586
C    1.96508757   4.02512149  -2.31555228
N    1.08320557   3.43653785  -2.75206689
C   -3.55176440   5.43448987   0.33152607
H   -4.34902356   6.09839880   0.59325674
H   -3.74337981   5.00918401  -0.63143683
H   -2.62997579   5.97715670   0.30473871
C   -3.45521059   4.31004325   1.37933194
N   -3.38332188   3.47284162   2.15947104
C   -2.72034362  -1.25469929  -3.85930623
H   -2.17610089  -2.12880541  -3.56837923
H   -3.00663732  -1.33836413  -4.88689331
H   -3.59601043  -1.16104491  -3.25157636
C   -1.83129021  -0.01101515  -3.67374276
N   -1.16934953   0.91496422  -3.53558232
C    2.10319424  -4.68993501  -2.47844519
H    1.83248049  -5.47281081  -1.80115669
H    3.02587886  -4.24906036  -2.16351386
H    2.21843698  -5.09373143  -3.46260303
C    0.99897823  -3.61654209  -2.49004847
N    0.17683921  -2.81735227  -2.49868763
C    4.41706573  -4.21734170   0.84366209
H    5.17870498  -4.82972619   1.27931226
H    4.86476164  -3.51572041   0.17120760
H    3.72649094  -4.83435098   0.30765360
C    3.67043728  -3.45774249   1.95593678
N    3.11453845  -2.89218636   2.78407585
C   -5.32241537   0.97917336   0.19348949
H   -5.20146442  -0.07888170   0.29736694
H   -6.22058110   1.18374838  -0.35088766
H   -5.38278877   1.42813678   1.16286351
C   -4.11691238   1.56137596  -0.56769555
N   -3.21936060   1.99485226  -1.13443241
C   -2.40204303   0.28813032   2.59181760
H   -1.72654590   0.92397275   3.12502320
H   -3.39899216   0.45133360   2.94445936
H   -2.35236538   0.51164850   1.54660430
C   -2.01089042  -1.18359990   2.82118582
N   -1.71965952  -2.27936995   2.99196089
C    0.74885765  -1.57810295   0.62673820
H    0.18565383  -2.40307819   0.24317922
H    0.65830742  -1.54919665   1.69250749
H    1.77838591  -1.69399788   0.35927043
C    0.20802271  -0.26555437   0.02981793
N   -0.19465348   0.71169770  -0.41461634
C    0.52810283   3.50666825   2.59830484
H    0.73535214   4.44457470   3.06977000
H    1.42549463   2.92596855   2.54957172
H   -0.20881368   2.97745458   3.16556671
C   -0.00114662   3.75423008   1.17345111
N   -0.39519690   3.93855112   0.11258274
C    4.17151032   0.23843631   1.70514697
H    4.52955661  -0.56545316   1.09648881
H    3.50463914  -0.14641579   2.44816163
H    4.99894967   0.71960774   2.18339091
C    3.42509187   1.25681017   0.82345873
N    2.86934940   2.01503580   0.16700176
C   -1.75095647   5.50333045  -5.40896777
H   -0.85139775   5.15740048  -5.87375455
H   -1.71368574   6.56791101  -5.30808060
H   -2.59160365   5.23147869  -6.01254712
C   -1.88938728   4.86027300  -4.01651884
N   -1.99245531   4.38148750  -2.97977732
C    1.09581719  -1.64668997   5.36110050
H    1.99163981  -2.21836290   5.23623226
H    0.24559320  -2.27774285   5.20685871
H    1.06542774  -1.24308636   6.35159517
C    1.07392729  -0.49654934   4.33723656
N    1.05762926   0.35978263   3.57492331
C   -2.35732803  -4.13122939  -0.15813122
H   -3.15912659  -4.74545755  -0.51132100
H   -2.18326211  -4.33300604   0.87815365
H   -1.47060503  -4.34596536  -0.71715705
C   -2.73008121  -2.64773056  -0.33669853
N   -3.00761290  -1.54319825  -0.46965000
C    0.29360035  -5.10567343   3.36986567
H    0.41201077  -6.10119958   3.74377320
H   -0.71588439  -4.78523658   3.52204937
H    0.95873354  -4.44804335   3.88949980
C    0.61878729  -5.08054515   1.86480022
N    0.86090374  -5.06183600   0.74421057
C    2.32644013   0.10233281  -2.96643085
H    2.93360056   0.43753026  -3.78123087
H    2.01913119   0.94358043  -2.38097141
H    1.46289886  -0.40084852  -3.34853571
C    3.13773346  -0.86666539  -2.08640494
N    3.74177822  -1.58812860  -1.43118565
Na  -0.96054583   2.54416525  -1.77594181
