91
Energy:   -776.32324544
C   -2.10102354   3.46758196   0.31337179
H   -1.78220883   4.23806934   0.98389887
H   -1.93012424   2.51125627   0.76185111
H   -3.14455826   3.58347835   0.10721066
C   -1.30393430   3.56824622  -1.00044534
N   -0.71046513   3.64319534  -1.97864191
C    2.05586467   1.58036709  -1.92236445
H    3.12124464   1.61010370  -1.82759403
H    1.71691125   2.46658608  -2.41696084
H    1.77253097   0.72190431  -2.49478279
C    1.41814104   1.49762029  -0.52305692
N    0.94332681   1.43601152   0.51879113
C   -1.95331688  -5.64992429  -0.09592899
H   -1.02838039  -6.03296845  -0.47364562
H   -2.53004062  -5.24984674  -0.90353457
H   -2.50010962  -6.43933788   0.37602756
C   -1.66750963  -4.53827223   0.93078611
N   -1.45471314  -3.71059674   1.69522218
C   -4.07778257  -1.31004037   1.51724416
H   -4.23231665  -1.44363748   0.46692458
H   -4.88561718  -0.74048110   1.92700577
H   -4.03647013  -2.26600981   1.99611242
C   -2.75214775  -0.56161729   1.74995689
N   -1.76515237  -0.00438228   1.92322209
C    1.98115344  -3.70424557   1.04973763
H    1.51165452  -3.76005695   0.08986470
H    1.58370255  -4.46712918   1.68608696
H    3.03605218  -3.84548484   0.93955958
C    1.71064700  -2.32265534   1.67394490
N    1.50924266  -1.29399862   2.13869559
C    4.74397713   0.00423988   1.45532874
H    4.38707333  -0.70131232   0.73441546
H    4.17582443  -0.08898695   2.35722139
H    5.77593046  -0.18840499   1.66235377
C    4.59012532   1.43115173   0.89689144
N    4.47557566   2.49355245   0.48110949
C    3.08907898  -2.70318709  -3.81111243
H    2.94855939  -3.76045513  -3.72544605
H    4.04552570  -2.50472985  -4.24783142
H    2.32116573  -2.29042743  -4.43146538
C    3.01997476  -2.06120577  -2.41301207
N    2.96852353  -1.58322150  -1.37206281
C   -1.07583043  -3.07511654   5.03571093
H   -1.11111884  -3.31144152   6.07869004
H   -0.39800543  -3.73981591   4.54212497
H   -2.05261878  -3.18269527   4.61237840
C   -0.59475692  -1.62347946   4.85427756
N   -0.23657582  -0.54266967   4.71919217
C   -1.47572728   1.47310439  -4.44100291
H   -0.85203060   2.31950632  -4.63976508
H   -2.01313905   1.63226195  -3.52954444
H   -2.16886998   1.34397386  -5.24584923
C   -0.60230415   0.21169961  -4.30837555
N    0.04799907  -0.72747358  -4.20962845
C    3.64144765   4.25161757   3.52058386
H    4.29101580   4.30602176   4.36911293
H    2.92663191   5.04646134   3.56706969
H    4.21790168   4.34234849   2.62371835
C    2.90569121   2.89874827   3.52324737
N    2.35788709   1.89147557   3.52523047
C   -0.81668865   5.27378716   4.39009310
H   -1.82824851   5.59743120   4.52009841
H   -0.33186763   5.89922678   3.66990358
H   -0.29885641   5.33786766   5.32424649
C   -0.80386979   3.81558556   3.89503374
N   -0.79432557   2.72988819   3.52643955
C    2.41100678   5.18388773  -0.87533441
H    1.76527369   4.98717852  -1.70553586
H    3.22119943   4.48498637  -0.88021723
H    2.79761897   6.17864614  -0.95205349
C    1.61787399   5.04118872   0.43698315
N    1.02735057   4.93494282   1.41406322
C   -0.95693349  -4.09226532  -4.57302823
H   -0.98330644  -5.01024774  -5.12213015
H   -0.48939349  -3.33480062  -5.16678967
H   -1.95531121  -3.79154493  -4.33280277
C   -0.15496525  -4.29405274  -3.27390207
N    0.44213655  -4.44429265  -2.30664359
C   -0.67941119  -1.31826692  -0.99331187
H   -0.84136396  -0.26252239  -1.05714726
H    0.15502057  -1.58879581  -1.60604089
H   -0.47810510  -1.58744753   0.02252116
C   -1.93701075  -2.06097295  -1.48160594
N   -2.87335079  -2.61395134  -1.84516307
C   -5.44315518  -0.29701094  -2.82203807
H   -6.38880959  -0.21487291  -2.32818458
H   -5.19523684  -1.33021442  -2.94823696
H   -5.49887792   0.17601780  -3.78018100
C   -4.35873582   0.39100580  -1.97217477
N   -3.55133632   0.90326553  -1.33941291
Na   0.36814732   0.76107769   2.77043193
