91
Energy:   -776.73020441
C    2.61182642   4.83714997  -3.62164599
H    2.74820133   5.59620890  -2.87993742
H    2.63921327   5.28060268  -4.59504146
H    3.39417108   4.11201092  -3.53792449
C    1.25013800   4.15008904  -3.40868603
N    0.23629908   3.63854095  -3.25012767
C    1.82479888   4.08495839   2.29859310
H    2.33186535   4.87342146   2.81445138
H    1.66592866   4.36984025   1.27952408
H    2.41997061   3.19638623   2.33189791
C    0.46705175   3.81902328   2.97490758
N   -0.54385269   3.62102251   3.47845445
C    0.27147616  -1.36219617   0.51970927
H    1.08344912  -2.05289332   0.61210805
H    0.65092962  -0.36182536   0.53283909
H   -0.24208606  -1.53678163  -0.40261002
C   -0.70414332  -1.55662255   1.69527935
N   -1.43053636  -1.70138183   2.57054471
C    4.18844240  -2.19155205  -2.95714388
H    4.61334226  -2.71491334  -2.12620871
H    4.58573182  -1.19873656  -2.99426008
H    4.42932604  -2.70623399  -3.86377317
C    2.65840938  -2.12645781  -2.79478107
N    1.51923025  -2.07799218  -2.67389457
C    3.80675449  -2.47066043   3.12949084
H    4.37912256  -1.63693470   3.47905686
H    4.25225030  -3.37962312   3.47621754
H    2.80668221  -2.39846180   3.50304389
C    3.78114786  -2.46628747   1.58970996
N    3.76208256  -2.46303160   0.44327310
C   -5.36510423   1.52720233  -2.16100883
H   -5.98517012   2.06971265  -2.84372474
H   -5.90586202   1.34465930  -1.25593527
H   -5.08123314   0.59419001  -2.60124093
C   -4.10294581   2.35196026  -1.84743192
N   -3.16321150   2.96603003  -1.61395966
C   -4.22252805  -3.12062090   1.01768822
H   -5.26609515  -3.28893447   1.18363527
H   -3.70951104  -3.10828347   1.95660272
H   -3.82768882  -3.90457330   0.40578977
C   -4.02720548  -1.76782402   0.30818861
N   -3.88177895  -0.76060525  -0.22006610
C   -1.97711399  -1.95228232  -3.01137942
H   -2.61150662  -1.92925516  -3.87272483
H   -2.52493045  -2.33348252  -2.17502864
H   -1.13584329  -2.58453443  -3.20482187
C   -1.48641669  -0.52680795  -2.69699276
N   -1.12107024   0.53452252  -2.46291760
C   -3.27355025   1.33549440   2.72058183
H   -3.16046872   2.10839147   3.45184298
H   -3.13574851   0.38168335   3.18550574
H   -4.25435215   1.38694395   2.29598829
C   -2.22301121   1.52182674   1.61006484
N   -1.44083713   1.66055964   0.78323447
C    3.81546361   0.88125381  -0.27463520
H    3.81694022  -0.02392878  -0.84519850
H    3.94342363   0.64957819   0.76211536
H    4.61728325   1.51001479  -0.60119911
C    2.47514834   1.61253530  -0.47558883
N    1.47722269   2.15700761  -0.62520793
C   -2.60987855   5.83634701   1.45763667
H   -3.58861651   5.62733452   1.07910535
H   -2.46550646   6.89537546   1.50778185
H   -2.50866765   5.41584680   2.43632713
C   -1.55468155   5.21816432   0.52168290
N   -0.76903942   4.75789921  -0.17517723
C    0.21720161   0.39218425   4.77291259
H   -0.12144935  -0.61762287   4.87540788
H   -0.60899250   1.02091305   4.51406421
H    0.64022401   0.72221098   5.69867363
C    1.28487360   0.46566051   3.66553833
N    2.07980393   0.52036692   2.84104786
C    1.25959220  -5.03838987  -0.91598026
H    1.91357219  -4.38259384  -0.38012401
H    1.48932276  -4.99620431  -1.96017533
H    1.39027082  -6.03972099  -0.56220325
C   -0.20037254  -4.60179252  -0.69352641
N   -1.28738265  -4.27672595  -0.52789941
C   -1.38461389  -5.19099888   3.08807637
H   -1.91087321  -5.40257211   2.18077925
H   -1.88855241  -4.41058482   3.61901794
H   -1.35168279  -6.07162920   3.69495765
C    0.05070727  -4.74225431   2.75629109
N    1.11936911  -4.40814358   2.50926186
C    1.05929536   0.57093505  -5.15723408
H    1.32028045   0.60349811  -6.19440650
H    0.26218797   1.25926759  -4.96824409
H    0.74455168  -0.41872838  -4.89954862
C    2.28390851   0.95776050  -4.30735838
N    3.19568866   1.24576963  -3.67458729
Na  -0.78006188   2.61932526  -1.31734032
