91
Energy:   -779.00503327
C   -1.06722201   7.01428996  -3.26720457
H   -0.80769110   7.63271010  -2.43347774
H   -2.12447057   7.05575453  -3.42659488
H   -0.56060291   7.36428937  -4.14226833
C   -0.64825696   5.56080918  -2.97830685
N   -0.33631844   4.47862666  -2.76320937
C    4.65536916   3.94087714   0.09489680
H    3.78424316   4.34318788  -0.37858576
H    5.15829376   3.28335761  -0.58306633
H    5.31220342   4.73921973   0.37078983
C    4.23995289   3.15916909   1.35504038
N    3.93065660   2.57715191   2.29327456
C    0.85534406  -4.76159014   0.50905872
H    1.40291299  -5.63895448   0.78346767
H    0.48900484  -4.86791655  -0.49063592
H    0.03121933  -4.63143026   1.17896612
C    1.78063397  -3.53314155   0.58876218
N    2.46955436  -2.61850573   0.64810504
C    2.51957136  -1.25755132  -2.50591477
H    3.37641857  -1.86978306  -2.69534908
H    2.61407297  -0.79975287  -1.54342367
H    2.45063999  -0.49835222  -3.25675714
C    1.24954763  -2.12796358  -2.53788697
N    0.30395724  -2.77602508  -2.56169173
C    5.43187936  -0.72398312   1.50971911
H    4.74842215  -1.53927075   1.62414163
H    5.28579703  -0.02196379   2.30390291
H    6.43572106  -1.09313778   1.54014555
C    5.18101408  -0.02965343   0.15821147
N    4.99423348   0.48730658  -0.84804740
C   -1.22140864  -1.30204206   0.17777898
H   -1.16495755  -2.30359405   0.55007869
H   -1.36951222  -0.62600301   0.99382777
H   -0.31036332  -1.05737213  -0.32722808
C   -2.40072390  -1.18568836  -0.80572361
N   -3.27877771  -1.09905774  -1.53798600
C   -5.63067249  -2.88925893   0.51598511
H   -6.66596560  -2.78196262   0.76408964
H   -5.34992358  -3.91877830   0.59452823
H   -5.46695603  -2.55033722  -0.48562763
C   -4.78032069  -2.04973956   1.48743199
N   -4.14719513  -1.42467923   2.21071835
C   -4.05614855   1.75867835   0.68265095
H   -4.66544932   2.63462406   0.76247487
H   -3.87488320   1.36011238   1.65896398
H   -4.56005047   1.02680878   0.08653949
C   -2.71485305   2.12495410   0.02055696
N   -1.71619758   2.39766304  -0.47240211
C   -2.22167679  -0.21309295   4.94208186
H   -3.07613518  -0.76533520   4.61067646
H   -2.49061907   0.38797178   5.78546216
H   -1.44423447  -0.89290052   5.22198219
C   -1.72375450   0.69505550   3.80237147
N   -1.35302872   1.37121330   2.95380528
C    4.77104707   1.96599186  -3.91043916
H    5.58625478   1.80918533  -3.23534784
H    5.03808100   2.71763749  -4.62361573
H    4.55011025   1.05210839  -4.42122583
C    3.53140977   2.42517809  -3.12047247
N    2.60844345   2.76706312  -2.53230637
C    0.75136723   4.10530823   3.03298083
H    1.36940135   3.31411643   3.40304780
H   -0.26766209   3.91595446   3.29873165
H    1.06532741   5.03373584   3.46234113
C    0.87663281   4.18031924   1.49991792
N    0.96989872   4.23616835   0.35848290
C    1.75903601   0.01774662   2.58106857
H    2.80766666  -0.10562905   2.75442482
H    1.27112118  -0.93163195   2.65535544
H    1.35288871   0.68563313   3.31173338
C    1.53657249   0.60045452   1.17303395
N    1.37093829   1.03430704   0.12468817
C   -2.61409384  -4.55099847  -2.66430242
H   -3.31133558  -5.27280092  -3.03545651
H   -1.63397069  -4.78350761  -3.02513090
H   -2.89648630  -3.57578711  -3.00211360
C   -2.61479758  -4.58107857  -1.12459638
N   -2.61532154  -4.60347458   0.02178476
C   -2.75678271  -4.38128180   3.58759188
H   -2.94488575  -4.94124084   2.69542412
H   -3.61601727  -3.78949369   3.82508271
H   -2.55280482  -5.05380007   4.39444458
C   -1.54297302  -3.45916664   3.36857211
N   -0.63923652  -2.77260999   3.20550194
C   -1.85346758  -0.49475272  -4.52800700
H   -1.65784694  -1.53603383  -4.37845301
H   -1.70151092  -0.24762316  -5.55792702
H   -2.86533962  -0.27913583  -4.25501720
C   -0.89737805   0.33790619  -3.65383771
N   -0.18552594   0.95785860  -3.00297894
Na   0.47894591   2.65836044  -1.42207903
