91
Energy:   -776.67096605
C   -0.45409889   2.68466001  -5.68068219
H    0.10026131   3.18869721  -6.44457450
H   -1.40407005   3.16104926  -5.55615439
H   -0.60163214   1.66297972  -5.96228903
C    0.32762415   2.74403483  -4.35516956
N    0.90965248   2.78824208  -3.36826516
C   -1.14419322   1.51584581   4.50688856
H   -0.44395887   0.70679028   4.50580588
H   -2.06546902   1.19077257   4.07045144
H   -1.31917738   1.83475439   5.51315739
C   -0.57421136   2.68915559   3.68831367
N   -0.14983396   3.56273805   3.07884746
C   -0.61838394  -0.54000914   1.15506490
H   -0.92249145   0.48479780   1.10827243
H   -0.86915598  -1.02874713   0.23683418
H    0.43918979  -0.59153293   1.30927969
C   -1.34188907  -1.23739321   2.32202496
N   -1.88057152  -1.75662735   3.19087977
C    3.72861960  -1.36481042   0.92483688
H    2.69981355  -1.18971292   1.16105536
H    4.29254846  -0.47342116   1.10458256
H    4.10600855  -2.15554253   1.53901878
C    3.85453747  -1.76169170  -0.55780601
N    3.94828905  -2.05718785  -1.66170104
C    1.74940108  -4.92338782  -1.27373880
H    2.30685995  -4.29455200  -1.93608711
H    0.88905162  -5.30427220  -1.78327289
H    2.36436511  -5.73848037  -0.95382871
C    1.30024778  -4.10712713  -0.04753335
N    0.96583274  -3.49938394   0.86543235
C   -5.24079004  -0.68872831   2.42980273
H   -4.68658513  -1.42993827   2.96679892
H   -5.65776553  -1.12555735   1.54650724
H   -6.02916309  -0.31468593   3.04904365
C   -4.30362829   0.46842786   2.03697014
N   -3.60586877   1.32998323   1.74448842
C    3.17779574   2.34924019   3.52441819
H    2.58547890   3.13184313   3.95055618
H    4.18262995   2.69307337   3.39408768
H    3.17267916   1.50193142   4.17782524
C    2.59144208   1.94750473   2.15825641
N    2.15487513   1.64839442   1.14108686
C    1.24394093  -1.60875920  -3.80201822
H    2.13949194  -1.35054450  -4.32757862
H    0.40231320  -1.49108376  -4.45218308
H    1.30280163  -2.62596960  -3.47534174
C    1.08161602  -0.68573580  -2.58002050
N    0.96075774   0.00149708  -1.67018766
C   -3.24716921   0.62988588  -1.65138561
H   -3.53445397   1.66016834  -1.62162485
H   -2.63865402   0.40457182  -0.80059661
H   -4.12266665   0.01491808  -1.63662337
C   -2.44943764   0.35642657  -2.93996791
N   -1.85549023   0.15282368  -3.89937601
C    1.43971224   6.28603567   1.73285700
H    0.44828508   6.68165331   1.65897168
H    2.14859191   7.08417509   1.65963018
H    1.55670475   5.79030667   2.67384829
C    1.67798808   5.28139526   0.59026246
N    1.85539527   4.53339482  -0.26045111
C   -2.56662097   4.40273814   0.67677049
H   -3.51555188   3.91682782   0.76799255
H   -2.67245778   5.28212773   0.07646090
H   -2.21039863   4.67487141   1.64834047
C   -1.56123601   3.44475194   0.01114031
N   -0.81268121   2.73148768  -0.48445162
C    1.06553084  -3.36291462   4.38590046
H    1.53390484  -3.69151191   5.29008507
H    1.36476910  -3.99764699   3.57814408
H    0.00238663  -3.40644726   4.49872062
C    1.49087671  -1.91378300   4.08473867
N    1.80756604  -0.83483863   3.86051003
C   -3.42143991  -3.01814122  -3.75855589
H   -3.23174598  -2.30260883  -4.53116820
H   -4.13490548  -2.61774216  -3.06895705
H   -3.80930177  -3.91638280  -4.19171214
C   -2.10936680  -3.33145247  -3.01565602
N   -1.13246873  -3.56472694  -2.46253330
C   -2.40909258  -4.47444365   0.82928324
H   -3.11701364  -5.22008550   1.12553682
H   -1.82885717  -4.17650182   1.67749113
H   -1.76191641  -4.87571804   0.07759116
C   -3.15677191  -3.25255299   0.26398790
N   -3.71345315  -2.34279984  -0.15690017
C    5.61506851   0.56088916  -3.31418104
H    5.35169382  -0.46210391  -3.48453110
H    6.55524625   0.60717510  -2.80543499
H    5.69151570   1.07042396  -4.25195990
C    4.53094934   1.23326926  -2.45151620
N    3.72377334   1.73388682  -1.80922302
Na   1.48800583   2.28666787  -1.08361280
