91
Energy:   -775.88062992
C    1.20670108   6.04052731  -4.56026710
H    1.84860437   6.78499822  -4.13762847
H    0.24933078   6.47106532  -4.76757900
H    1.63662517   5.67280361  -5.46847614
C    1.04196815   4.87863801  -3.56303277
N    0.91931700   4.01355861  -2.82054649
C    1.29821325   5.03486392   2.94465029
H    0.63508700   4.76803865   3.74087139
H    1.54223163   6.07416197   3.01685616
H    2.19312314   4.45261863   3.01554310
C    0.61341277   4.76107804   1.59272958
N    0.10354769   4.55723202   0.58616316
C    0.42666487  -1.43292173  -0.00659147
H    1.43228061  -1.79164193   0.06381442
H    0.43090598  -0.43071334  -0.38137067
H   -0.12996692  -2.05994607  -0.67134752
C   -0.22564155  -1.45661739   1.38823284
N   -0.71131333  -1.47425989   2.42674294
C    3.00334428  -4.47026983  -2.41281488
H    2.62887876  -5.27350509  -1.81324096
H    3.72244108  -3.91124951  -1.85130337
H    3.46735422  -4.86730599  -3.29142524
C    1.83950336  -3.54734598  -2.81936852
N    0.97297089  -2.86018722  -3.12206619
C    4.76284604  -3.36502482   1.07588682
H    5.18396798  -2.78912985   0.27845250
H    4.24341784  -4.20837626   0.67110073
H    5.54498928  -3.70451367   1.72233741
C    3.77863026  -2.49147569   1.87578132
N    3.04583687  -1.84107866   2.47133913
C   -4.63162652   1.26167642  -2.20239350
H   -3.67568995   1.62046742  -2.52232236
H   -5.40203881   1.75885317  -2.75391800
H   -4.69296879   0.20748321  -2.37505756
C   -4.81035610   1.54697345  -0.69964224
N   -4.94342840   1.75939005   0.41922438
C   -4.16434328  -1.70832257   1.54247978
H   -3.42777494  -1.98148255   2.26894443
H   -4.91479670  -2.46934748   1.49188480
H   -4.61605276  -0.78014149   1.82414894
C   -3.49423398  -1.55575606   0.16433719
N   -2.99530715  -1.44216335  -0.86175260
C   -1.68257696  -1.06684814  -3.97248124
H   -1.00202655  -1.35880381  -4.74482392
H   -2.61397288  -0.77352994  -4.40993428
H   -1.84388051  -1.89071071  -3.30905774
C   -1.08938935   0.11693914  -3.18611228
N   -0.64773422   0.99832257  -2.60062485
C   -2.55521730   1.43304184   3.05751560
H   -3.59831430   1.66403973   2.99844944
H   -2.07807853   2.10899117   3.73599196
H   -2.43140160   0.42957364   3.40768747
C   -1.91886146   1.57196012   1.66203971
N   -1.44506561   1.67539110   0.62304448
C    3.84198705   1.26577337   1.42777045
H    4.42587610   0.47918120   0.99736772
H    3.43219568   0.93676340   2.35982333
H    4.46293520   2.12129415   1.59332008
C    2.69771335   1.64009677   0.46749982
N    1.84574957   1.91879755  -0.24746532
C   -3.89925543   5.20669471   0.20850295
H   -4.64251604   5.77266990  -0.31316354
H   -3.31289288   5.86317476   0.81687127
H   -4.37666847   4.47706277   0.82867479
C   -2.98631999   4.49739633  -0.80886850
N   -2.30659806   3.96929143  -1.56634779
C    1.19041727  -0.36947030   5.04253203
H    2.11471517  -0.86700734   4.83509419
H    0.37613551  -1.03945602   4.86097366
H    1.17478326  -0.05824396   6.06614956
C    1.05457732   0.86295861   4.12915014
N    0.95343831   1.78055795   3.44909580
C   -1.47011972  -4.80330805  -1.45984207
H   -0.46333407  -5.16556410  -1.46714922
H   -1.50865440  -3.84725071  -1.93876641
H   -2.10032080  -5.49069383  -1.98448145
C   -1.95665972  -4.66861613  -0.00494107
N   -2.31891086  -4.56833186   1.07829886
C    0.56744008  -4.58137090   3.14849321
H   -0.49423293  -4.44824830   3.14310995
H    1.02847097  -3.75141108   3.64196693
H    0.81097643  -5.48493898   3.66729362
C    1.08140635  -4.66702721   1.69932045
N    1.46407760  -4.73080223   0.62034547
C    2.70153579   0.31466392  -3.38908031
H    3.44968147   0.52702506  -4.12398232
H    2.29358281   1.23236770  -3.01990117
H    1.92212837  -0.26947537  -3.83203003
C    3.33367778  -0.47106227  -2.22519421
N    3.80433623  -1.05607113  -1.35862811
Na  -0.22149024   2.81256186  -1.08288337
