91
Energy:   -777.96402570
C    3.26325067   5.59577617  -1.48862402
H    3.94033618   4.86744977  -1.88358736
H    3.61460361   5.92896290  -0.53445590
H    3.20498767   6.42855958  -2.15793433
C    1.86692075   4.96589519  -1.33015407
N    0.82728966   4.49692018  -1.21216599
C    0.33361358   3.68391502   4.63477429
H    0.34141991   4.64803425   5.09879298
H    1.22664927   3.15534380   4.89554011
H   -0.51880263   3.13239727   4.97258175
C    0.26391647   3.85082504   3.10543347
N    0.21202381   3.97509714   1.96676971
C    0.45599818  -1.37983345   0.11434564
H   -0.58967627  -1.58316422   0.21495243
H    0.97675294  -1.75808203   0.96912140
H    0.82832897  -1.85487508  -0.76917251
C    0.67561252   0.14091358   0.01091447
N    0.83912537   1.27317887  -0.06609473
C    0.91442004  -4.13382330  -3.45938704
H    1.13594627  -5.17112012  -3.31852675
H    1.72796915  -3.54256203  -3.09408299
H    0.77098298  -3.93805809  -4.50150070
C   -0.36887482  -3.77362046  -2.68801928
N   -1.32434618  -3.50543308  -2.11370093
C    4.24804838  -1.44250011  -1.53674229
H    4.22486984  -0.46078954  -1.96172145
H    3.47839125  -2.04052541  -1.97820888
H    5.20094106  -1.89079662  -1.72628086
C    4.01768550  -1.34950808  -0.01691157
N    3.84616987  -1.28027128   1.11467149
C   -5.36969814   1.44876825   0.93975699
H   -6.41613016   1.61678069   1.08690323
H   -4.82001798   2.30014442   1.28313641
H   -5.06662034   0.58278338   1.49031410
C   -5.09095176   1.22798114  -0.55862665
N   -4.88341242   1.06359511  -1.67424137
C   -4.71747649  -2.61421559  -1.67082853
H   -5.54250679  -3.20772776  -1.33621159
H   -4.07147423  -3.21216140  -2.27913848
H   -5.08211686  -1.78723980  -2.24358286
C   -3.93499898  -2.08963279  -0.45257492
N   -3.35240891  -1.69905706   0.45447026
C   -2.20113765  -0.26288669  -3.33701669
H   -2.21008247  -1.05983816  -2.62309195
H   -1.52769505  -0.50434425  -4.13267516
H   -3.18613004  -0.12705498  -3.73228726
C   -1.73986416   1.03615225  -2.65048584
N   -1.39642508   2.00334579  -2.13933242
C   -2.03660307  -0.37981823   3.21130613
H   -3.00636244  -0.83191617   3.21993134
H   -1.81279841   0.00283591   4.18515744
H   -1.30460750  -1.11102770   2.93851629
C   -2.01651230   0.77252602   2.18988599
N   -2.00155381   1.63049869   1.42939227
C    3.68831356   2.23670046   1.67328927
H    2.64128287   2.36179552   1.85488811
H    4.22627548   3.05050073   2.11286313
H    4.01795553   1.31567208   2.10681202
C    3.94655447   2.21098535   0.15531352
N    4.13882657   2.19183928  -0.97488842
C   -4.55027475   4.53196641  -2.45139230
H   -4.61212332   3.59702530  -2.96807407
H   -4.21309931   5.29078899  -3.12622569
H   -5.51592230   4.79480931  -2.07279287
C   -3.55672727   4.40714793  -1.28139925
N   -2.81698600   4.31421490  -0.41028624
C    2.44444104  -1.62192821   4.16875837
H    3.43685014  -1.37289127   4.48181580
H    2.49078909  -2.28643908   3.33139569
H    1.92546920  -2.09852531   4.97400524
C    1.69633742  -0.33801047   3.76441171
N    1.13934027   0.61792464   3.46335724
C   -1.37109928  -4.90480310   0.98608365
H   -0.70687250  -5.21178560   0.20540144
H   -2.13776182  -4.28041104   0.57710664
H   -1.81602518  -5.76779933   1.43572523
C   -0.58330627  -4.11956475   2.05115779
N    0.00324144  -3.53491911   2.84415389
C    3.36267877  -4.81614015   2.01166852
H    2.63639592  -4.85006523   2.79669240
H    4.07260480  -4.04203326   2.21578283
H    3.86830937  -5.75728492   1.95264903
C    2.65848902  -4.52690320   0.67299053
N    2.13418775  -4.31155314  -0.32371609
C    2.02037128   1.83346643  -3.55745097
H    3.07277044   1.88729308  -3.74308202
H    1.78888832   2.36689520  -2.65924805
H    1.49063680   2.27012982  -4.37818574
C    1.60128653   0.35978615  -3.40177698
N    1.28925888  -0.73743581  -3.28587062
Na  -0.75832595   3.10275449  -0.06123554
