91
Energy:   -779.55974230
C   -0.64111282   7.12967673  -3.12625599
H   -0.36352576   7.71362602  -2.27370169
H   -1.68899049   7.24326417  -3.31050954
H   -0.09050422   7.46257928  -3.98118590
C   -0.32493440   5.64661183  -2.85764904
N   -0.08952519   4.54240259  -2.65765896
C    4.85125508   3.68123265   0.18216933
H    5.28789327   2.99328804  -0.51135751
H    5.57922778   4.41248570   0.46540742
H    4.01618935   4.16830035  -0.27644746
C    4.37695557   2.91788611   1.43274601
N    4.02381802   2.34953991   2.36385720
C    0.58284326  -4.80977423   0.41504149
H    1.05670951  -5.72959185   0.68759697
H    0.21275115  -4.88224546  -0.58629704
H   -0.23049943  -4.61603299   1.08275183
C    1.60409335  -3.66046053   0.50294069
N    2.36446047  -2.80474424   0.56838563
C    2.52174904  -1.39204712  -2.55943351
H    2.86989578  -1.24453235  -3.56039975
H    3.24315606  -1.96109923  -2.01111727
H    2.38252359  -0.44232539  -2.08662911
C    1.18276934  -2.15223917  -2.58844082
N    0.18583810  -2.71823670  -2.61003808
C    5.32882887  -1.00228978   1.53368528
H    4.73107869  -1.88896562   1.57111327
H    5.03992116  -0.34367147   2.32593105
H    6.36066393  -1.26279744   1.64482146
C    5.11988189  -0.29911986   0.17961984
N    4.96431137   0.22442211  -0.82854343
C   -1.28111782  -1.23408453   0.14188604
H   -1.28541713  -2.24268852   0.49909700
H   -1.38837238  -0.56264708   0.96806236
H   -0.35678303  -1.03736649  -0.35991700
C   -2.45091688  -1.03194329  -0.83908751
N   -3.32188544  -0.88143995  -1.56946690
C   -5.77558008  -2.57131825   0.44975445
H   -6.80342958  -2.40842081   0.69853147
H   -5.55548411  -3.61672564   0.50958952
H   -5.59008639  -2.22415672  -0.54521794
C   -4.87998948  -1.80081533   1.43760198
N   -4.21318157  -1.22714089   2.17309937
C   -3.95110959   1.97148939   0.72267957
H   -4.50907648   2.88091703   0.80339207
H   -3.79758946   1.55946259   1.69816128
H   -4.49381730   1.27223070   0.12151011
C   -2.58791276   2.26201433   0.06778289
N   -1.57295075   2.47832336  -0.41981745
C   -2.26117113  -0.16494227   4.94337026
H   -3.15578971  -0.64173333   4.60098442
H   -2.48354455   0.43876105   5.79835065
H   -1.54003308  -0.90909290   5.21001391
C   -1.69143636   0.72342118   3.82184778
N   -1.26724293   1.38484814   2.98682331
C    4.81457661   1.72397349  -3.90527798
H    5.06980002   0.74848613  -3.54724780
H    5.66005830   2.37239218  -3.80723211
H    4.52953083   1.66275936  -4.93479283
C    3.64063482   2.28281144  -3.07995330
N    2.76658180   2.69889169  -2.46546156
C    0.93431616   3.99458642   3.13727564
H    1.45997615   3.13181837   3.48971437
H   -0.10101904   3.91107241   3.39419104
H    1.34473486   4.87236647   3.59110135
C    1.07717161   4.09317828   1.60708874
N    1.18353398   4.16658441   0.46779503
C    1.73684083  -0.16720738   2.57016918
H    2.50898416  -0.90710451   2.53485502
H    0.81561536  -0.62671141   2.86188612
H    1.99921001   0.58847211   3.28080974
C    1.57379186   0.47142125   1.17834717
N    1.45239450   0.94690930   0.14207242
C   -2.83186956  -4.33709289  -2.76207606
H   -3.55362217  -5.02158652  -3.15633718
H   -1.85785736  -4.60218606  -3.11693511
H   -3.07000209  -3.34419250  -3.08198353
C   -2.85220199  -4.39943221  -1.22347267
N   -2.86734042  -4.44584667  -0.07791251
C   -2.99733381  -4.27902246   3.49667396
H   -3.21593988  -4.80579766   2.59134559
H   -3.82250521  -3.64647681   3.74941348
H   -2.83118160  -4.98126551   4.28670385
C   -1.73420723  -3.42054627   3.29886123
N   -0.79375208  -2.78137172   3.15158066
C   -1.82745641  -0.30038552  -4.53416022
H   -1.69503821  -1.35422145  -4.40456307
H   -1.65417903  -0.04238661  -5.55803063
H   -2.82654472  -0.03037480  -4.26246948
C   -0.82948747   0.45641262  -3.63810523
N   -0.08645423   1.01988324  -2.97095155
Na   0.63643630   2.65909595  -1.35235573
