91
Energy:   -777.90166366
C    2.63376577   5.46652476  -4.73322194
H    2.93763313   6.35931340  -4.22775853
H    1.87185818   5.70224104  -5.44654778
H    3.47466523   5.03853627  -5.23781390
C    2.08273370   4.45830297  -3.70781837
N    1.67246527   3.70763602  -2.94435880
C   -0.22189226   4.94937762   2.80492718
H   -1.08849184   4.37984127   3.06861963
H   -0.39166532   5.98170296   3.02938337
H    0.62008529   4.59678331   3.36318353
C    0.05789185   4.79077934   1.29888354
N    0.26620384   4.67269572   0.17756560
C    0.43305542  -1.39242770   0.21319138
H    0.78762242  -0.53234815  -0.31543475
H   -0.62410439  -1.31170131   0.35739779
H    0.64942805  -2.27375776  -0.35367661
C    1.13285024  -1.47802868   1.58233698
N    1.65387929  -1.54176250   2.60172811
C    3.58072356  -4.49402663  -2.45544280
H    4.07997998  -4.73416293  -3.37085405
H    3.28907956  -5.39687469  -1.96076285
H    4.24198747  -3.93872235  -1.82356759
C    2.33018892  -3.64820512  -2.75933273
N    1.39910904  -3.01845256  -2.98559260
C    4.12175952  -3.82307652   1.88339321
H    4.62627683  -3.09933180   1.27795448
H    4.78855300  -4.63013618   2.10461761
H    3.80199286  -3.36433994   2.79564818
C    2.89617035  -4.36340397   1.12340806
N    1.98366350  -4.76570231   0.55756457
C   -4.30774556   2.44852212  -1.89713888
H   -4.38501274   1.51337169  -2.41136026
H   -5.03228927   3.13170873  -2.28853581
H   -4.48741926   2.29743030  -0.85320991
C   -2.89513891   3.02862199  -2.09620322
N   -1.84338905   3.46053271  -2.24441566
C   -4.64004329  -2.53910594   0.74589807
H   -4.73310582  -2.20773650   1.75902878
H   -4.02006896  -3.41049841   0.71116916
H   -5.60872417  -2.77485501   0.35733814
C   -4.00422491  -1.42257204  -0.10303482
N   -3.53082922  -0.59126181  -0.73510394
C   -1.52488758  -1.39078776  -3.26940841
H   -1.62562496  -2.03045112  -2.41759684
H   -1.04843680  -1.92672835  -4.06355035
H   -2.49338413  -1.06671453  -3.58861066
C   -0.67172148  -0.16521789  -2.89299627
N   -0.03650054   0.74727458  -2.61274033
C   -2.97053426   1.35498699   2.30222227
H   -3.77335861   2.03928623   2.12303578
H   -2.54513283   1.54841955   3.26477957
H   -3.34298822   0.35236359   2.27183386
C   -1.89127021   1.53473785   1.21848857
N   -1.08770907   1.66857054   0.41159957
C    3.63475576   1.16589714   2.08663405
H    4.04689441   0.19687584   1.89679297
H    3.01696154   1.12600063   2.95935259
H    4.42818322   1.86654700   2.24303652
C    2.78880213   1.60957334   0.87869619
N    2.15895119   1.93991044  -0.02066846
C   -2.79962362   6.64256842  -0.59101755
H   -3.63310676   6.87341671  -1.22102954
H   -1.95345285   6.39256354  -1.19632051
H   -2.56539095   7.49195400   0.01608893
C   -3.15500492   5.44765717   0.31313467
N   -3.41960245   4.55799142   0.98631709
C   -0.12845510  -0.23431268   5.27349931
H    0.49687281  -1.07047602   5.03962743
H   -1.15499690  -0.51353831   5.15885167
H    0.04741676   0.07104486   6.28380865
C    0.19586955   0.93152914   4.32101499
N    0.43734399   1.79955136   3.61184711
C   -0.38240978  -5.87786172  -1.83802544
H    0.52255458  -6.12994108  -1.32577970
H   -0.14901901  -5.51812302  -2.81833963
H   -1.00245137  -6.74648543  -1.91509919
C   -1.12839513  -4.78263992  -1.05342677
N   -1.68381513  -3.96719751  -0.46925740
C   -0.72662995  -4.26052035   2.94941347
H   -1.29978079  -5.03733150   3.41089231
H    0.18626088  -4.12164135   3.49000763
H   -0.50474176  -4.53330070   1.93884155
C   -1.53495612  -2.94977279   2.96164557
N   -2.13679170  -1.97386165   2.97075293
C    3.31792992   0.10595116  -2.88112967
H    4.18769067   0.14427078  -3.50318114
H    3.03033634   1.09986663  -2.60851076
H    2.51798450  -0.36304975  -3.41500659
C    3.63136835  -0.70468644  -1.60982207
N    3.86473751  -1.30824298  -0.66327577
Na   0.25978159   2.73264255  -1.26947376
