91
Energy:   -776.90206641
C    3.15031693   5.25064053  -3.07275278
H    3.95492889   4.59800668  -2.80522926
H    3.14856352   6.09999536  -2.42198985
H    3.27654040   5.57645476  -4.08409437
C    1.81313095   4.49857910  -2.93882269
N    0.81753521   3.93863518  -2.83910565
C   -0.08975389   4.41455322   3.05868127
H    0.83680849   4.01939306   3.41955629
H   -0.89646575   3.79939717   3.39882551
H   -0.22056655   5.41042230   3.42750632
C   -0.07397657   4.43534633   1.51890248
N   -0.06222964   4.45082775   0.37246718
C    0.09652748  -1.44138528   0.16638397
H    0.70136192  -0.58526815   0.38118375
H   -0.77587178  -1.13562986  -0.37244092
H    0.65682584  -2.13442755  -0.42577922
C   -0.32479075  -2.11615159   1.48501256
N   -0.63848132  -2.61854578   2.46679149
C    0.99873254  -5.02834692  -3.13029876
H   -0.02030907  -5.34520161  -3.05246893
H    1.55509095  -5.40912198  -2.29941082
H    1.41917192  -5.39987829  -4.04139385
C    1.05953217  -3.48955138  -3.12687719
N    1.10480025  -2.34384816  -3.12432967
C    3.86046630  -1.49113301  -1.21487343
H    4.78652437  -1.03501118  -1.49642185
H    3.05693297  -1.02321849  -1.74429696
H    3.88802447  -2.53307355  -1.45674023
C    3.64445872  -1.32143882   0.30043004
N    3.48363125  -1.19509378   1.42864235
C   -5.00771441   2.03577633  -0.88584985
H   -5.01857922   1.10178563  -1.40781106
H   -5.89188534   2.58864653  -1.12559013
H   -4.97499082   1.85491931   0.16824645
C   -3.76662730   2.84460532  -1.30668053
N   -2.84258153   3.44681527  -1.62000810
C   -4.11332286  -3.26061874   1.25923770
H   -3.30921742  -3.43090428   1.94430518
H   -4.19439116  -4.09207013   0.59064543
H   -5.02800715  -3.14993105   1.80329650
C   -3.83749375  -1.97817167   0.45248631
N   -3.63212644  -1.02333153  -0.14817678
C   -2.25893143  -1.51677315  -3.24703236
H   -2.13470003  -1.72714131  -4.28876744
H   -3.30232404  -1.47072444  -3.01441580
H   -1.79856933  -2.29095827  -2.66944840
C   -1.59860250  -0.16602572  -2.91379508
N   -1.10695760   0.83966714  -2.66568477
C   -2.48412153   0.72112548   2.95977326
H   -3.40223681   1.23675981   3.14973580
H   -1.78582913   0.93639062   3.74140471
H   -2.66731744  -0.33251307   2.92536178
C   -1.90407474   1.18562935   1.61092861
N   -1.47220354   1.53147360   0.60665246
C    3.70806931   2.29779187   0.90850804
H    3.65419317   3.30901620   1.25408424
H    4.59231993   2.16861359   0.32002449
H    3.73839679   1.63510518   1.74804702
C    2.46929965   1.98207782   0.04980298
N    1.54697934   1.74701436  -0.58954197
C   -3.45095756   6.21490130   0.55624284
H   -3.22987009   7.06066776   1.17325144
H   -4.39644116   6.36051065   0.07691230
H   -2.68792385   6.10560294  -0.18587071
C   -3.50656689   4.94536691   1.42617964
N   -3.54797056   4.00014085   2.07388712
C    1.87111054  -0.88460789   4.46860280
H    2.81800983  -1.22296652   4.10282233
H    1.15041755  -1.66962698   4.37244799
H    1.96408014  -0.60997218   5.49856929
C    1.41173501   0.33694832   3.65106103
N    1.06970904   1.24645244   3.04236402
C   -0.83369944  -6.07225487   0.97609620
H   -0.69819347  -5.55892700   1.90509179
H    0.08955365  -6.52555483   0.68110133
H   -1.58135433  -6.82881661   1.09239577
C   -1.28145766  -5.06976504  -0.10377727
N   -1.61483402  -4.32336579  -0.90779215
C    2.68434069  -4.32190466   2.81248037
H    3.43696506  -3.58025535   2.98104204
H    3.04039424  -5.27384325   3.14705159
H    1.79929642  -4.06153166   3.35451508
C    2.36247485  -4.39398794   1.30821763
N    2.12283110  -4.44765722   0.18822565
C    2.13143634   0.80645938  -4.25166221
H    2.51007165   0.11102571  -4.97132011
H    1.63766346   1.60976427  -4.75741777
H    1.43643427   0.30992497  -3.60720523
C    3.29743387   1.36584481  -3.41551768
N    4.16557203   1.78233270  -2.79297006
Na  -0.55417362   2.71911862  -1.28182052
