91
Energy:   -780.07835232
C    3.82492894   4.92957845   2.27816581
H    4.49599782   4.16487917   2.60952928
H    3.17445755   5.20593826   3.08154076
H    4.38597627   5.78454923   1.96328498
C    2.98779369   4.40190248   1.09818163
N    2.36450845   4.00902373   0.21962978
C    4.66951503   1.45407958  -1.10133108
H    4.07127287   2.26489384  -1.46131266
H    4.24682073   0.52676280  -1.42738662
H    5.66413877   1.54705098  -1.48470952
C    4.70738573   1.48794686   0.43783065
N    4.73558218   1.51316259   1.58380651
C   -0.60749577  -1.39617526  -0.78598463
H    0.32897807  -1.12783870  -1.22860460
H   -0.90564002  -0.63646437  -0.09399585
H   -1.34911088  -1.49251321  -1.55124609
C   -0.45884154  -2.73714283  -0.04348353
N   -0.34816171  -3.73555414   0.50934229
C    2.61326565  -4.51154624  -1.69992001
H    3.54029398  -4.99743009  -1.47757895
H    2.31733735  -4.74857393  -2.70049155
H    1.86157611  -4.84757236  -1.01658381
C    2.78682474  -2.98746490  -1.56334295
N    2.91604736  -1.85271706  -1.46165511
C    2.48003197  -1.08399829   1.78840261
H    2.73872796  -1.00475124   2.82363034
H    3.37264985  -1.12158478   1.19957354
H    1.91064842  -1.97602572   1.63032497
C    1.64248583   0.13989649   1.37343510
N    1.01889466   1.05114178   1.06447293
C   -4.22006453   0.63935049  -0.97223335
H   -4.13810993   0.05673648  -1.86595844
H   -4.99116173   1.37127156  -1.09306278
H   -4.46190727  -0.00109351  -0.14989360
C   -2.88013920   1.34622182  -0.69558727
N   -1.88250389   1.87251965  -0.48961169
C   -4.07182298  -3.66922834   0.99112121
H   -3.15666403  -4.09760514   1.34308372
H   -4.84321721  -4.41049742   1.01036111
H   -4.34819853  -2.85040797   1.62203233
C   -3.88096215  -3.16430097  -0.45117574
N   -3.73885758  -2.78835959  -1.52503138
C   -2.94833882  -1.93175271  -4.94374891
H   -3.61174933  -1.63620403  -5.72952092
H   -3.48462792  -2.51505440  -4.22468548
H   -2.14952543  -2.51504162  -5.35187916
C   -2.37136131  -0.67810123  -4.26033473
N   -1.94177533   0.25529927  -3.75150182
C    3.06840293   1.20885359   4.84754522
H    3.80137768   0.98311067   4.10142972
H    2.51117217   0.32520653   5.07897740
H    3.55643453   1.56434411   5.73091986
C    2.11306058   2.29390718   4.31690439
N    1.40176477   3.10177890   3.92181817
C   -1.87579029   3.59837077  -4.41578739
H   -1.29805808   2.93861997  -5.02885717
H   -2.09971629   4.48979851  -4.96361293
H   -2.78754895   3.11525790  -4.13259631
C   -1.07275441   3.96025119  -3.15254713
N   -0.47485769   4.22968762  -2.21200735
C   -0.59115693   5.95576561   3.46684190
H   -1.58676108   6.19500523   3.77738489
H   -0.07047807   6.85567246   3.21393820
H   -0.07853689   5.45911441   4.26399769
C   -0.64540929   5.03105107   2.23657375
N   -0.68580263   4.34255906   1.32058320
C   -1.65941575   1.42387526   3.32876270
H   -2.47540112   2.06700826   3.58459079
H   -0.97385014   1.95096015   2.69861955
H   -1.15705802   1.11297974   4.22088364
C   -2.19472937   0.18709122   2.58350800
N   -2.59329468  -0.73375072   2.02863200
C   -1.73563256  -5.50264091  -2.47378092
H   -1.57067384  -5.58830765  -1.42004945
H   -1.46726512  -6.42110436  -2.95263675
H   -2.76881655  -5.29338730  -2.65720085
C   -0.87228420  -4.35861083  -3.03718553
N   -0.22948209  -3.50682843  -3.45666588
C   -1.02900691  -3.46379737   3.89051878
H   -0.44263806  -4.15388883   3.32056656
H   -1.91484036  -3.21310186   3.34522074
H   -1.29949080  -3.91152748   4.82394007
C   -0.20870567  -2.18699672   4.15221704
N    0.40204589  -1.23636060   4.34706330
C    1.47904511  -0.21657467  -4.12559859
H    1.29350266   0.28317799  -5.05334933
H    0.76034082  -0.99781623  -3.99134190
H    2.46349322  -0.63566157  -4.13687594
C    1.36361488   0.79173254  -2.96732728
N    1.27767184   1.54246310  -2.10494165
Na   0.30162590   2.90550703  -0.34497260
