91
Energy:   -776.79783382
C    4.83281199   3.39814414   2.11242090
H    5.02587214   2.84090709   1.21960803
H    4.90866759   2.75029827   2.96061943
H    5.54904332   4.18803819   2.20174715
C    3.41493412   3.99570684   2.04806906
N    2.35925959   4.44061943   2.00015620
C    0.69107593  -4.10487595  -0.62539662
H    0.22484803  -4.17933180   0.33480547
H    1.32818517  -4.95067216  -0.77908354
H   -0.06094335  -4.08188962  -1.38621047
C    1.52748165  -2.81348173  -0.69117246
N    2.15022373  -1.85198004  -0.74014557
C    1.03202139   1.51790959   3.33429106
H    0.44443948   0.71706504   3.73215498
H    0.46336377   2.42395412   3.35900744
H    1.91792636   1.63667379   3.92248027
C    1.42110177   1.19556799   1.87953598
N    1.71078980   0.95557002   0.79640469
C    2.36133545  -1.73443992  -5.33980537
H    1.45628698  -1.20675294  -5.55736893
H    2.12853291  -2.73855528  -5.05265658
H    2.98443681  -1.74756120  -6.20955914
C    3.10219146  -1.02985314  -4.18815880
N    3.65379243  -0.50525625  -3.33070557
C    3.16241206  -2.19148907   2.62856932
H    2.12367822  -2.02160844   2.43602642
H    3.26683312  -2.93059583   3.39519604
H    3.63934260  -2.53512035   1.73450338
C    3.82070176  -0.87765445   3.08910518
N    4.31082836   0.10055514   3.43199506
C   -5.86551002  -2.40183855  -1.70718423
H   -6.74773043  -2.32891358  -2.30824103
H   -6.11495352  -2.21542947  -0.68350035
H   -5.45078149  -3.38380740  -1.80011702
C   -4.83365717  -1.36178277  -2.18169838
N   -4.06539583  -0.58741396  -2.53499573
C   -3.61702271  -3.85696471   1.95186118
H   -2.84130850  -3.49224928   2.59229096
H   -3.84311154  -4.87111835   2.20735158
H   -4.49293468  -3.25464652   2.07388624
C   -3.14741311  -3.78914701   0.48677839
N   -2.79776741  -3.73865364  -0.60404234
C   -1.13441018   4.67850079   1.86099379
H   -0.22355871   5.23858245   1.90046907
H   -1.20982196   4.05851664   2.72980436
H   -1.96578256   5.35136141   1.82972645
C   -1.14026410   3.79629770   0.59874047
N   -1.14462261   3.13945740  -0.34106450
C   -3.10912101  -0.57639665   4.38542171
H   -3.30356431  -0.27021722   5.39207266
H   -2.35000152  -1.33047021   4.38229588
H   -4.00506790  -0.97045150   3.95310351
C   -2.63233796   0.63538264   3.56330927
N   -2.27735130   1.53760741   2.95120919
C    1.76733401   4.81953667  -1.51628707
H    1.59785277   5.27264239  -0.56189119
H    0.84013115   4.45762830  -1.90899086
H    2.18013412   5.54403171  -2.18681082
C    2.75161750   3.64554731  -1.35965057
N    3.48446130   2.77145887  -1.24302757
C    7.27451349   0.19308777   1.28187751
H    7.85125252  -0.69580079   1.13305071
H    7.07363026   0.31735667   2.32547813
H    7.82242291   1.03834828   0.92100494
C    5.94497973   0.07702499   0.51345743
N    4.95508141  -0.00938903  -0.05866624
C   -4.45124672   1.82351429   0.14653006
H   -3.88028386   1.77874823  -0.75729381
H   -3.95533702   2.45854391   0.85059686
H   -5.42371556   2.21651640  -0.06501847
C   -4.58711774   0.40834425   0.73850372
N   -4.68827988  -0.64531417   1.17925501
C   -2.58495968  -3.32495191  -4.15328311
H   -3.01915694  -3.84643113  -3.32597885
H   -2.32331398  -4.02532825  -4.91873305
H   -3.29072442  -2.62022046  -4.54077350
C   -1.32083852  -2.58067845  -3.68460977
N   -0.37964286  -2.02653302  -3.33566116
C   -1.51326012   1.49628769  -3.44248517
H   -2.15131549   1.77454276  -2.62986001
H   -1.87285657   0.59054606  -3.88432404
H   -1.51064466   2.27471833  -4.17660913
C   -0.08114905   1.27904066  -2.91954960
N    0.98512274   1.11729037  -2.53020030
C   -1.31050479  -0.52492112  -0.11994709
H   -1.47405468   0.51070817   0.09364968
H   -2.20983101  -0.95534553  -0.50833642
H   -0.52792653  -0.62063828  -0.84334780
C   -0.90708472  -1.25820389   1.17278204
N   -0.60672014  -1.80416624   2.13527765
Na   2.90344695   0.40636109  -1.23503223
