91
Energy:   -779.58655093
C    4.55292922   4.54736577   1.59303283
H    5.19581251   5.24231094   1.09438221
H    5.12236208   3.69858364   1.90959912
H    4.11127365   5.01882175   2.44600921
C    3.44375208   4.09023097   0.62744811
N    2.61791929   3.74987334  -0.09147361
C    4.57781156   0.94812227  -1.49945495
H    5.54816067   1.07411664  -1.93240784
H    3.94291305   1.75269679  -1.80680298
H    4.15948981   0.01897459  -1.82593709
C    4.69708430   0.94607680   0.03591791
N    4.78588828   0.94455385   1.17907280
C   -0.79502920  -1.44706345  -0.68558468
H    0.12788116  -1.21274367  -1.17367370
H   -0.97152005  -0.74301444   0.10058646
H   -1.59546865  -1.39872027  -1.39400454
C   -0.71728071  -2.86719359  -0.09500400
N   -0.65939342  -3.92454504   0.34471016
C    2.25489083  -4.72057947  -1.80377684
H    1.50675983  -5.10827177  -1.14431125
H    3.17099035  -5.25346437  -1.65648645
H    1.93269653  -4.83844530  -2.81728440
C    2.47686108  -3.22599513  -1.50620859
N    2.64212802  -2.11320916  -1.28465550
C    2.21933205  -1.31596384   1.99541032
H    2.20289872  -1.32631709   3.06523411
H    3.23156627  -1.37502794   1.65366127
H    1.66742441  -2.15318519   1.62210419
C    1.58045646  -0.01107953   1.48480782
N    1.10478454   0.96046616   1.10464106
C   -4.19290899   0.63082298  -0.29352849
H   -4.23366461   0.08858217  -1.21505660
H   -4.98802905   1.34628207  -0.26521830
H   -4.29617542  -0.04976525   0.52563864
C   -2.84124396   1.36105774  -0.18695052
N   -1.83486792   1.90475071  -0.10759838
C   -4.38244420  -3.86242280   0.99582451
H   -3.48655322  -4.34922326   1.32033160
H   -5.17424184  -4.57915038   0.93057758
H   -4.64844426  -3.10000600   1.69786702
C   -4.14941913  -3.22755122  -0.38773517
N   -3.97592138  -2.75486046  -1.41785824
C   -3.41718920  -1.65674733  -4.75874513
H   -3.98837908  -2.26354263  -4.08759555
H   -2.64138285  -2.24661625  -5.20042177
H   -4.05683553  -1.27564923  -5.52719546
C   -2.79107028  -0.48293967  -3.98301922
N   -2.32489629   0.39101348  -3.40545602
C    3.67012278   1.15757002   4.60244232
H    4.41331867   1.50427607   5.28972317
H    4.14704120   0.67724492   3.77374714
H    3.02541951   0.46061062   5.09590395
C    2.84195955   2.35298423   4.09575649
N    2.22535438   3.24302444   3.71850586
C   -2.35606845   3.72926236  -3.98776215
H   -1.93695116   3.11795821  -4.75947980
H   -2.66127434   4.66738044  -4.40210851
H   -3.20398341   3.23466759  -3.56195078
C   -1.29965012   3.97074174  -2.89356472
N   -0.51309866   4.15053413  -2.07888499
C    0.57961018   6.29625398   3.13041098
H   -0.27886299   6.73010318   3.59913144
H    1.12511352   7.05658495   2.61154490
H    1.20673753   5.85273557   3.87532829
C    0.12745740   5.21586025   2.13045735
N   -0.20919090   4.41145802   1.38594642
C   -1.23767568   1.98747721   3.70589618
H   -2.19151138   1.94691101   4.18906491
H   -1.36797445   1.87744530   2.64957506
H   -0.77331860   2.92921650   3.91180564
C   -0.34565797   0.84882331   4.23445240
N    0.31848977   0.00104372   4.62798653
C   -2.07403116  -5.35975396  -2.74697395
H   -1.89258516  -5.55711769  -1.71110471
H   -1.84640313  -6.23314236  -3.32167151
H   -3.10262005  -5.09961850  -2.88565893
C   -1.18239128  -4.19306986  -3.21111458
N   -0.51852485  -3.32442052  -3.55668838
C   -1.20107927  -3.02729067   3.81956711
H   -0.27827012  -2.61011172   4.16494397
H   -1.00005246  -3.89062715   3.22028634
H   -1.80198522  -3.30800479   4.65921627
C   -1.95370892  -1.98113698   2.97653029
N   -2.51407590  -1.20222800   2.34885107
C    1.17087955  -0.38604825  -4.16232188
H    0.17206215  -0.61808605  -4.46797273
H    1.66552401  -1.28197147  -3.84999590
H    1.70326032   0.04781267  -4.98283057
C    1.13028127   0.61293884  -2.99100784
N    1.10005401   1.35673014  -2.11891130
Na   0.40655233   2.80356959  -0.30048248
