91
Energy:   -778.86524995
C    0.41960366   5.39376918  -0.70038055
H    0.03736243   5.15870169   0.27097680
H   -0.24723491   5.01606241  -1.44708197
H    0.50513203   6.45542659  -0.80269154
C    1.80639989   4.74771185  -0.87646613
N    2.83893273   4.26669280  -1.00756984
C    3.24314673   2.42978969   2.08681329
H    3.84348510   3.25451484   2.40980316
H    3.53497350   2.14166900   1.09852047
H    3.38143550   1.60499113   2.75425814
C    1.76006074   2.84457453   2.08373055
N    0.65583581   3.15340069   2.08143531
C    0.19544454  -0.28003985   1.32209325
H    0.02482562  -1.26005507   0.92793651
H    1.10354527  -0.27632232   1.88798928
H    0.27438234   0.41966428   0.51643697
C   -0.97959150   0.11804881   2.23446144
N   -1.85445924   0.41444392   2.91376103
C    2.36869413  -2.51827681  -1.64437509
H    2.78258412  -1.93583409  -2.44083961
H    3.12969100  -3.14451916  -1.22771770
H    1.98852946  -1.86623702  -0.88594380
C    1.22488622  -3.39368952  -2.18931182
N    0.37326924  -4.04547408  -2.59504198
C   -0.50422453  -5.74224341   0.47508673
H   -0.15766260  -6.67407529   0.87066778
H   -0.49418171  -5.78284460  -0.59409510
H   -1.50189912  -5.55914279   0.81570184
C    0.41843850  -4.60619273   0.95433802
N    1.10540306  -3.76035136   1.31116239
C   -5.06605811   1.31070234  -2.99496913
H   -5.50315095   0.35454660  -2.79593085
H   -5.60603400   1.79262718  -3.78305135
H   -5.10977006   1.91360556  -2.11207839
C   -3.59689438   1.12551005  -3.41788963
N   -2.50303520   0.98762596  -3.73277316
C   -0.03027022   2.05400724   5.45708210
H    0.54370891   2.81837472   5.93790483
H   -0.71852779   1.63042272   6.15835006
H   -0.57181767   2.47724123   4.63702208
C    0.91363050   0.95439201   4.93602763
N    1.61640750   0.13567848   4.54807889
C   -0.38086327  -2.60780889  -5.71747202
H    0.42513950  -3.08059444  -6.23875268
H   -1.12264363  -2.29034187  -6.42023491
H   -0.81583463  -3.30156261  -5.02870153
C    0.15273902  -1.38577740  -4.94707756
N    0.55003018  -0.47591940  -4.37348387
C   -4.94088294  -1.12975506   2.28004225
H   -5.93581905  -0.82103604   2.52436761
H   -4.27218960  -0.82702110   3.05856679
H   -4.91242351  -2.19463869   2.17948378
C   -4.51229678  -0.47715273   0.95262970
N   -4.19319490   0.00873937  -0.03568929
C    4.50719956   1.24935634  -1.61854822
H    4.74069111   2.25450953  -1.33561899
H    4.90006121   1.05306335  -2.59426738
H    4.94285873   0.57056992  -0.91544853
C    2.97869294   1.06214702  -1.63338662
N    1.84065028   0.92276118  -1.64443448
C   -2.78666845   3.12875707   1.16825966
H   -3.51621291   2.38006011   1.39655315
H   -3.28082456   4.04779275   0.93144275
H   -2.14850762   3.27472830   2.01462971
C   -1.94392744   2.67350640  -0.03761529
N   -1.31646845   2.33455158  -0.93544401
C    3.68894843  -2.47952188   3.19734249
H    2.97048591  -2.13543881   3.91170838
H    4.65819442  -2.50446686   3.64993397
H    3.42309161  -3.46267793   2.86928239
C    3.71064281  -1.52383069   1.98995535
N    3.72679527  -0.81227515   1.09100074
C   -2.80729422  -3.01233399  -1.21983142
H   -2.44693910  -3.88531702  -1.72276780
H   -3.76975338  -2.74965454  -1.60657548
H   -2.88642832  -3.21175889  -0.17156304
C   -1.82681881  -1.84692823  -1.44807991
N   -1.09681031  -0.97923066  -1.61802129
C   -0.62600044  -2.68892516   4.40774677
H   -0.92235296  -1.76315796   4.85499443
H    0.36493635  -2.59435974   4.01531746
H   -0.64501924  -3.46367282   5.14551600
C   -1.59831141  -3.04238454   3.26701112
N   -2.32224113  -3.30555112   2.41768158
C    2.79064633   4.22824696  -4.63633862
H    3.27905436   3.61246583  -5.36240431
H    3.44863364   4.39450136  -3.80910754
H    2.53203431   5.16668687  -5.08057892
C    1.51289972   3.52457621  -4.14256634
N    0.56155928   3.00066135  -3.77493043
Na  -0.32425444   1.03651529  -2.69595651
