91
Energy:   -777.83430410
C    0.18559929  -1.65399534  -5.21132247
H   -0.54420841  -2.24492489  -4.69840614
H    1.15983199  -1.88250320  -4.83243739
H    0.14973757  -1.87251847  -6.25815611
C   -0.11457646  -0.16010542  -4.98819155
N   -0.33807095   0.95216354  -4.82206043
C    2.82647090   2.28146023  -5.95073079
H    1.77918326   2.44147736  -6.10067514
H    3.23463066   1.77290778  -6.79906983
H    3.31762472   3.22435043  -5.82979664
C    3.03944328   1.42603195  -4.68800151
N    3.19801090   0.78912672  -3.74784217
C   -3.23447592   0.90373112  -2.70473988
H   -3.83838849   1.08986760  -1.84129157
H   -3.81391895   1.07227004  -3.58833453
H   -2.39189741   1.56322633  -2.69958208
C   -2.74401079  -0.55591904  -2.68316758
N   -2.37883720  -1.64269493  -2.66710603
C   -1.02191745  -0.19159787   0.47433622
H   -1.57185495  -0.97322727  -0.00683361
H   -0.11319328  -0.01282036  -0.06153510
H   -1.60994118   0.70224362   0.48754914
C   -0.69198685  -0.61040611   1.91910107
N   -0.44633852  -0.92222788   2.99479417
C   -0.35319879  -4.45379780   2.95036903
H   -1.02977013  -5.07130841   2.39734819
H   -0.86712095  -3.58048946   3.29404861
H    0.02292728  -4.99992467   3.79011525
C    0.81888362  -4.03594011   2.04305553
N    1.69155225  -3.72482607   1.36751939
C    4.59821140   3.22057717   1.90919707
H    5.52873462   3.74875077   1.90149188
H    4.64777955   2.42104321   2.61855420
H    3.80990946   3.89080938   2.18171852
C    4.32217748   2.64649888   0.50711313
N    4.11665769   2.21907149  -0.53680210
C   -4.85485967  -3.05373773  -0.73675409
H   -5.23284055  -2.05300408  -0.76047742
H   -5.63193876  -3.72127414  -0.42781669
H   -4.51473895  -3.32976963  -1.71298325
C   -3.68195426  -3.13601322   0.25779286
N   -2.80867286  -3.19727106   0.99827827
C   -4.54476500   3.63145023   1.07415433
H   -4.89823383   4.63924746   1.00854396
H   -4.27662708   3.41273061   2.08665760
H   -5.31636314   2.96148554   0.75684893
C   -3.31142555   3.46001637   0.16801734
N   -2.39314827   3.33237607  -0.50664283
C    0.22885912   1.13177826   5.70108429
H   -0.65143306   1.69137530   5.46267917
H    0.49481994   1.30361090   6.72315938
H    0.03995050   0.08917247   5.55213531
C    1.38492628   1.57964002   4.78755895
N    2.24567083   1.91309345   4.10739781
C   -0.06801878  -3.74228125  -1.48722693
H   -0.68942778  -3.92759877  -2.33834881
H   -0.68035719  -3.62082413  -0.61821085
H    0.59553186  -4.56924438  -1.34324219
C    0.75263976  -2.46015897  -1.72021199
N    1.36365734  -1.50556066  -1.89367996
C    3.11387599  -1.28018430   3.24946557
H    3.73859068  -0.63546018   3.83167048
H    3.63944089  -2.18702677   3.03425090
H    2.22371713  -1.50559890   3.79874196
C    2.73949594  -0.57850003   1.93072422
N    2.46075296  -0.05606419   0.94886134
C    0.48497482   3.28844222   1.59441148
H    1.06395860   2.42747967   1.33283656
H    1.07782757   3.94875838   2.19224698
H    0.17585284   3.79443173   0.70372787
C   -0.75669143   2.84897561   2.39236764
N   -1.68116839   2.52177274   2.98648227
C    4.66379057  -3.97048955  -0.24333536
H    5.55329170  -4.41981538  -0.63294314
H    3.80920418  -4.51515825  -0.58672609
H    4.69320571  -3.99019231   0.82607833
C    4.57120348  -2.51152061  -0.72752259
N    4.50226819  -1.42525192  -1.08802199
C   -3.94556408  -0.35510452   3.30906780
H   -4.86359744  -0.37458172   3.85837243
H   -3.30091368   0.39448144   3.71826928
H   -3.46916276  -1.31081281   3.37661439
C   -4.23775928  -0.03040928   1.83231632
N   -4.45531189   0.21134109   0.73280771
C   -0.16194425   3.84372124  -2.98017149
H    0.57212169   4.36455505  -3.55877284
H   -0.64148449   4.52862628  -2.31245497
H   -0.89142370   3.41299143  -3.63380033
C    0.52163531   2.72828561  -2.16769236
N    1.03059136   1.89779308  -1.56276472
Na   2.87431160   0.32889620  -1.41404962
