91
Energy:   -778.51860890
C   -0.52579091   6.70058784  -3.62990037
H   -0.50000613   7.38665150  -2.80919825
H   -1.52702727   6.62401584  -3.99944275
H    0.11627175   7.05320116  -4.40984812
C   -0.04595922   5.31587340  -3.15669061
N    0.31129728   4.28489057  -2.80436442
C    4.62764211   3.93493542   1.11039248
H    5.32952019   3.33782024   0.56659029
H    5.13634550   4.76107841   1.56162158
H    3.87680716   4.30065398   0.44151589
C    3.96594964   3.07894370   2.20631276
N    3.47328951   2.44161896   3.02227522
C    0.41740372  -4.75613128   0.12141631
H    0.65817172  -4.09142276   0.92459346
H    1.17853125  -5.50337701   0.03651762
H   -0.52362957  -5.22619070   0.31737442
C    0.32980742  -3.96080382  -1.19440325
N    0.26458800  -3.36864637  -2.17409072
C    3.22330205  -1.25114650  -1.94435125
H    2.59206217  -1.72579968  -2.66625205
H    4.24055087  -1.30102544  -2.27240004
H    2.93341455  -0.22691538  -1.83565469
C    3.08495875  -1.97034082  -0.58964808
N    2.98195588  -2.50581368   0.41899000
C    5.21911296  -0.72148196   2.58538298
H    4.63168459  -1.61100450   2.49276691
H    4.77713895  -0.07664253   3.31595822
H    6.21145685  -0.97961977   2.89118940
C    5.27244958   0.00220560   1.22706360
N    5.31216112   0.54102388   0.21573309
C   -1.40157516  -1.14204760  -0.14017265
H   -1.56995607  -0.40469282   0.61669986
H   -0.41063705  -1.03408245  -0.52912546
H   -1.51459222  -2.11873913   0.28196464
C   -2.42278434  -0.95297035  -1.27726613
N   -3.18312100  -0.81219375  -2.12388391
C   -5.97641944  -2.33922294  -0.38737994
H   -7.00342927  -2.08313040  -0.23063943
H   -5.86490078  -3.40286066  -0.35365346
H   -5.66059728  -1.97763150  -1.34362630
C   -5.11334278  -1.69738175   0.71477186
N   -4.47074298  -1.21950182   1.53537397
C   -4.05194499   2.05259449   0.16878870
H   -4.56697664   2.98819872   0.23426618
H   -4.02435129   1.59231020   1.13433313
H   -4.56377593   1.41098360  -0.51769774
C   -2.61374219   2.29192959  -0.32708571
N   -1.54293484   2.47012545  -0.69628676
C   -2.88282934  -0.31126703   4.54806885
H   -3.73188562  -0.78848688   4.10505098
H   -3.19831364   0.26692836   5.39131190
H   -2.18217821  -1.05435279   4.86714665
C   -2.21517413   0.61289332   3.51280842
N   -1.71807447   1.30097271   2.74200997
C    5.60653905   2.19396045  -2.78229282
H    5.96757541   1.27076826  -2.37946643
H    6.25159199   2.99195986  -2.47897326
H    5.59031054   2.13488084  -3.85053686
C    4.18187694   2.45917543  -2.26114131
N    3.12115124   2.65664004  -1.87312033
C    0.28269405   3.95513108   3.17418093
H    0.66428578   3.04302001   3.58325469
H   -0.78423412   3.96332544   3.25478005
H    0.68757690   4.78523448   3.71445615
C    0.68633831   4.06136726   1.69182295
N    0.98686981   4.14046493   0.58814005
C    1.44276341  -0.40912602   2.80010508
H    1.83441983  -1.39284212   2.64580644
H    0.45397654  -0.47806880   3.20315161
H    2.07084027   0.12148411   3.48484696
C    1.39822366   0.34223526   1.45657524
N    1.36506178   0.90165788   0.45625620
C   -3.04016759  -4.19384301  -3.30671098
H   -3.60808662  -4.99935644  -3.72326382
H   -2.02572232  -4.26298539  -3.63990644
H   -3.45734923  -3.26134360  -3.62499298
C   -3.08240197  -4.27709469  -1.76954299
N   -3.11384739  -4.33907935  -0.62505155
C   -3.24175009  -4.38150477   2.84161130
H   -3.18052398  -5.06623370   2.02167360
H   -4.11983739  -3.77886660   2.73822354
H   -3.29054614  -4.92830935   3.76004627
C   -1.99584856  -3.47636399   2.84864997
N   -1.06821824  -2.80244554   2.85389058
C   -0.63721035  -0.93137507  -4.60153888
H   -1.70291150  -0.91529919  -4.50707832
H   -0.27967385  -1.92662076  -4.43858871
H   -0.36133714  -0.60967608  -5.58403713
C   -0.01503270   0.01489313  -3.55795300
N    0.44820684   0.71943281  -2.78095588
Na   0.80521600   2.53929032  -1.22754718
