91
Energy:   -776.65527766
C   -1.22966686   4.84496386  -4.97979162
H   -1.42550615   5.28393765  -5.93574620
H   -0.32599083   5.25351151  -4.57809829
H   -2.04240564   5.05672349  -4.31683413
C   -1.07868609   3.32038823  -5.13623323
N   -0.96627404   2.18527238  -5.25271112
C    2.80526444   2.70819985   2.99128034
H    2.49200179   3.65863181   3.37002273
H    3.86535777   2.71391103   2.84613003
H    2.54525614   1.94196573   3.69140893
C    2.10460289   2.43487236   1.64741820
N    1.58292852   2.23136762   0.64685174
C    0.22151250  -1.27131758   0.74724756
H   -0.73384008  -0.81723220   0.58597731
H    0.11895957  -2.33611652   0.72305660
H    0.89834246  -0.96064108  -0.02104952
C    0.76997741  -0.83948771   2.11994899
N    1.17833446  -0.51797074   3.14198760
C    2.89430766  -3.85245906  -2.61827029
H    3.05928018  -4.85601111  -2.95078725
H    3.57051850  -3.62526063  -1.82076239
H    3.06034040  -3.17580713  -3.43035057
C    1.44466681  -3.70896290  -2.11872023
N    0.36534331  -3.60212348  -1.74678250
C   -1.31826112  -2.86989803   4.77253077
H   -0.28962858  -2.57538246   4.76382096
H   -1.38696323  -3.92962415   4.64153589
H   -1.75953162  -2.59683537   5.70827444
C   -2.06474501  -2.16157171   3.62682766
N   -2.62053620  -1.63419057   2.77379961
C   -3.97832421   1.38470904  -3.37315607
H   -3.36236373   0.77037933  -3.99612627
H   -4.65053914   1.95085044  -3.98349213
H   -4.53912381   0.76558762  -2.70450701
C   -3.09022609   2.34513794  -2.56047037
N   -2.42899668   3.06022092  -1.95538892
C   -2.72149665  -3.57719584  -0.17566825
H   -2.13585459  -3.45480168   0.71142995
H   -2.20525218  -4.21965380  -0.85804536
H   -3.66612171  -4.01126885   0.07763633
C   -2.94783600  -2.20394966  -0.83488401
N   -3.11635593  -1.18150545  -1.32570010
C   -0.46753582  -1.06517270  -3.89916504
H    0.49795820  -1.45487679  -4.14584741
H   -0.88637222  -0.58088741  -4.75645316
H   -1.10795748  -1.86600690  -3.59351200
C   -0.33258547  -0.04869454  -2.75018265
N   -0.23210881   0.70811966  -1.89471303
C   -4.29109014   0.88265515   1.11312229
H   -4.74599292   1.29356575   1.99011495
H   -4.30807414  -0.18571109   1.16972801
H   -4.83230972   1.20259753   0.24731784
C   -2.83297172   1.36842282   1.01554951
N   -1.74733628   1.73009893   0.94290215
C    4.04073668  -0.11937489  -0.11995994
H    4.43456749   0.87357700  -0.05795978
H    4.83202070  -0.82620491   0.01845973
H    3.30146560  -0.25802199   0.64106197
C    3.39905380  -0.33162869  -1.50371983
N    2.92129174  -0.48966129  -2.53399196
C   -0.76277666   6.77162710   2.27420456
H   -0.21842429   6.45552020   3.13945430
H   -1.79712767   6.88283611   2.52450365
H   -0.37585841   7.70871612   1.93206784
C   -0.61441769   5.71781733   1.16106729
N   -0.50395769   4.93320806   0.33228599
C   -1.32498625   1.34877269   4.50824816
H   -1.54693176   0.77192601   3.63481340
H   -2.22224874   1.50537075   5.06976056
H   -0.61392524   0.82372720   5.11125610
C   -0.73755865   2.70929198   4.08930180
N   -0.30019211   3.72226044   3.77737719
C    0.88163832  -6.28609448   0.35808797
H    1.87788682  -6.01342967   0.07872617
H    0.24587136  -6.24350498  -0.50149658
H    0.88146574  -7.28058431   0.75291584
C    0.36306185  -5.30850137   1.42906422
N   -0.02304190  -4.58063886   2.22645473
C    3.11910672  -3.42295650   3.55251585
H    2.20881847  -3.89986893   3.85055953
H    3.16339066  -2.44185039   3.97721436
H    3.95271241  -3.99863662   3.89688928
C    3.16573659  -3.32006931   2.01666434
N    3.20045465  -3.24346511   0.87315307
C    2.56801343   2.27731283  -4.40382441
H    2.74247251   2.95771092  -5.21099394
H    2.00818810   1.43776488  -4.75970912
H    3.50515508   1.94090337  -4.01204220
C    1.77386790   2.99054909  -3.29376724
N    1.18259045   3.52158591  -2.46727922
Na  -0.33421218   2.79854078  -0.71383495
