91
Energy:   -775.85579155
C    2.36006922   5.11174471  -3.12273086
H    3.03120592   4.68050138  -2.40963557
H    2.13187344   6.11683983  -2.83531206
H    2.81901523   5.11264837  -4.08930566
C    1.06202395   4.28452503  -3.17157818
N    0.09557023   3.66862238  -3.20794722
C    0.23868011   4.81340305   2.26054939
H    0.91281341   4.48945296   3.02572964
H   -0.40022515   4.00185615   1.98110214
H   -0.35480556   5.62436243   2.62799834
C    1.04215525   5.28049546   1.03260297
N    1.64037901   5.62826698   0.11834105
C    0.23523789  -1.33287648   0.27991031
H    1.28677172  -1.46198561   0.42993572
H    0.04820276  -0.35457516  -0.11104171
H   -0.11907479  -2.06749340  -0.41269319
C   -0.49904991  -1.49777952   1.62349820
N   -1.04576055  -1.62055732   2.62386046
C    3.32523456  -3.97954074  -2.43495564
H    3.29108978  -4.89320872  -1.87912731
H    3.87852501  -3.24762095  -1.88444480
H    3.80202990  -4.15278880  -3.37705457
C    1.89182143  -3.46861060  -2.67133923
N    0.82458020  -3.08819989  -2.84733755
C    4.93601626  -2.40379404   1.02265089
H    5.13906470  -1.69778584   0.24468949
H    4.63978277  -3.33632699   0.58960689
H    5.81723596  -2.54822436   1.61213441
C    3.80183344  -1.86989507   1.91717938
N    2.95738277  -1.47238302   2.58319650
C   -5.87171152   1.26146420  -1.36982104
H   -5.92222726   0.27249095  -1.77513604
H   -6.70813721   1.83195091  -1.71599451
H   -5.89248036   1.21047287  -0.30123897
C   -4.56528497   1.93716256  -1.82619958
N   -3.59259101   2.44025071  -2.16599414
C   -4.11693990  -3.16177115   1.74747575
H   -3.20117388  -3.26968103   2.29027243
H   -4.29910057  -4.04759624   1.17560994
H   -4.92285287  -3.00873809   2.43448686
C   -4.01287082  -1.95178673   0.80052944
N   -3.93538665  -1.05089832   0.09548487
C   -2.41211175  -2.01926730  -2.79298419
H   -1.88785511  -2.58760825  -3.53260823
H   -3.41995199  -1.85889804  -3.11460328
H   -2.41426533  -2.55507149  -1.86680476
C   -1.71301207  -0.66093313  -2.59859306
N   -1.19250059   0.35040840  -2.45386002
C   -3.02267598   1.10517524   3.03015358
H   -2.30549320   1.29006845   3.80239936
H   -3.26060052   0.06222860   3.00663128
H   -3.91066055   1.66925921   3.22558075
C   -2.43441454   1.52827228   1.67128001
N   -1.99642716   1.84328726   0.65953687
C    3.03194754   1.85769423   1.11258551
H    3.31865463   2.80288046   1.52407331
H    3.85266778   1.44324977   0.56527100
H    2.75890192   1.19198004   1.90452603
C    1.83105948   2.05195397   0.16827040
N    0.93694374   2.19658917  -0.53481513
C   -1.29640870   7.42064868  -1.48918089
H   -1.43725025   7.54266089  -2.54283020
H   -0.29651513   7.69839444  -1.22847180
H   -1.98854034   8.04375061  -0.96230627
C   -1.53664970   5.94849240  -1.10624464
N   -1.71552004   4.85240514  -0.82113120
C    1.07234428  -0.32191340   5.12317465
H    2.12751604  -0.49940687   5.12020658
H    0.56041273  -1.21000827   4.81639674
H    0.75878573  -0.05234346   6.11004454
C    0.74177381   0.82376007   4.14862068
N    0.49564906   1.67676604   3.42302094
C   -0.31576995  -6.13682951  -1.59152322
H    0.70084296  -6.24151246  -1.27460075
H   -0.34007039  -5.77676189  -2.59882650
H   -0.80491343  -7.08711300  -1.54054241
C   -1.03995842  -5.13669291  -0.67126357
N   -1.57914966  -4.39204575   0.01391156
C    0.78919355  -4.49328650   2.96816214
H   -0.26499775  -4.47886792   2.78547939
H    1.07138495  -3.60794920   3.49867601
H    1.03809954  -5.35409131   3.55293559
C    1.54205910  -4.54934705   1.62590632
N    2.10260172  -4.59108668   0.62653585
C    1.96311880   0.30206693  -3.61815157
H    2.64865682   0.50426738  -4.41442589
H    1.41615612   1.19138110  -3.38394818
H    1.28235730  -0.46624931  -3.92006717
C    2.74346294  -0.16309795  -2.37465463
N    3.32446463  -0.50943434  -1.44881463
Na  -1.27226454   2.56978239  -1.51008416
