91
Energy:   -779.31287292
C   -0.83283517   7.12873360  -3.12004901
H   -0.61530566   7.72216292  -2.25667034
H   -1.87726306   7.19342997  -3.34339593
H   -0.26690173   7.49018487  -3.95309848
C   -0.45724006   5.66130233  -2.84224729
N   -0.17759243   4.56873305  -2.63541128
C    4.69721570   3.85589245   0.36587474
H    5.18219424   3.19897153  -0.32560983
H    5.38304339   4.61619101   0.67649601
H    3.85145262   4.30996541  -0.10677908
C    4.22939574   3.05357885   1.59430356
N    3.88108251   2.45621990   2.50892466
C    0.75742716  -4.77785860   0.42364313
H    1.26912592  -5.67580167   0.70070417
H    0.42915107  -4.85328402  -0.59195763
H   -0.08930365  -4.63817320   1.06273156
C    1.71209673  -3.57797604   0.56677891
N    2.42289162  -2.68460894   0.67335001
C    2.64892831  -1.27634599  -2.45998654
H    3.03526140  -1.11954030  -3.44540975
H    3.36695378  -1.81412891  -1.87678157
H    2.45165125  -0.33082076  -1.99959226
C    1.34340671  -2.08887451  -2.54371670
N    0.37138654  -2.69383893  -2.60605761
C    5.35974777  -0.83954245   1.68569735
H    4.66883005  -1.65186457   1.77325103
H    5.20385796  -0.15052555   2.48934726
H    6.36035288  -1.21624952   1.72789063
C    5.13839381  -0.11989722   0.34230121
N    4.97358572   0.41591136  -0.65791827
C   -1.24376927  -1.28111236   0.10037978
H   -1.22596931  -2.28989246   0.45667468
H   -1.40561952  -0.61537148   0.92226340
H   -0.30871393  -1.05107800  -0.36615510
C   -2.38222725  -1.11846954  -0.92385688
N   -3.22986097  -0.99737456  -1.68644763
C   -5.68828345  -2.80001197   0.22786782
H   -6.73054192  -2.68033290   0.43828261
H   -5.42856606  -3.83615468   0.28995053
H   -5.47948385  -2.43838127  -0.75728448
C   -4.86252315  -2.00146590   1.25355983
N   -4.24770707  -1.40691205   2.01723414
C   -4.05974923   1.81035857   0.58484826
H   -4.65899369   2.69375193   0.65848539
H   -3.92000281   1.39188813   1.55965722
H   -4.55192005   1.09677556  -0.04242063
C   -2.69005503   2.16824387  -0.02133317
N   -1.67025544   2.43470574  -0.47266279
C   -2.40899800  -0.29050824   4.84871915
H   -3.25753631  -0.82123463   4.47028498
H   -2.70297387   0.29573375   5.69417619
H   -1.65413229  -0.98895210   5.14410539
C   -1.85107299   0.63482947   3.75141801
N   -1.43567246   1.32378546   2.93442743
C    4.85607022   1.92789344  -3.73133489
H    4.60410028   1.86098685  -4.76908960
H    5.13531247   0.96060216  -3.36902225
H    5.67450766   2.60564748  -3.60600055
C    3.63887819   2.44090700  -2.93958956
N    2.73262341   2.82286891  -2.35009917
C    0.70995586   4.00660648   3.19846062
H    1.29902052   3.19082793   3.56234024
H   -0.32012642   3.83444742   3.43124989
H    1.03346462   4.91493607   3.66233403
C    0.87908109   4.12118271   1.67206980
N    1.00500251   4.20648992   0.53560245
C    1.66632347  -0.08213864   2.63403117
H    2.70607571  -0.21961946   2.84596156
H    1.16867531  -1.02899753   2.66055746
H    1.23580763   0.56771681   3.36699986
C    1.50571956   0.54319500   1.23590234
N    1.38614264   1.00878431   0.19493188
C   -2.56922421  -4.42580744  -2.87568460
H   -3.25376668  -5.13234846  -3.29651899
H   -1.57577373  -4.65463077  -3.20063864
H   -2.83156442  -3.43970474  -3.19767553
C   -2.63624715  -4.49883288  -1.33887777
N   -2.68614878  -4.55320365  -0.19465524
C   -2.95836325  -4.41535808   3.37155653
H   -3.12256342  -4.94575865   2.45689063
H   -3.81594348  -3.81577268   3.59505729
H   -2.79539983  -5.11452181   4.16497450
C   -1.72230657  -3.50865774   3.22438863
N   -0.80200619  -2.83357813   3.11481543
C   -1.65858936  -0.34529854  -4.59334331
H   -1.48881702  -1.39303839  -4.45799651
H   -1.45827952  -0.07997747  -5.61038795
H   -2.67702823  -0.11578164  -4.35881536
C   -0.72543873   0.45046824  -3.66190082
N   -0.03066567   1.04295279  -2.96839954
Na   0.56512830   2.70174679  -1.31688086
