91
Energy:   -776.17883793
C    4.42508860   0.29498975   0.20441987
H    4.26130968   0.20570715  -0.84919546
H    4.67156781  -0.66416499   0.60959797
H    5.23094986   0.97568847   0.38368501
C    3.14622196   0.82425938   0.87967815
N    2.19404761   1.21832469   1.38243863
C    0.40381731  -2.83298244   4.40970285
H   -0.30404096  -2.84649718   5.21198348
H    1.37708296  -2.61367666   4.79643021
H    0.41774806  -3.78942273   3.93019583
C    0.00177851  -1.75260670   3.38855004
N   -0.29755765  -0.94821786   2.62825535
C    3.49473951   0.65609146   5.21322556
H    3.90109484   1.40377292   5.86187643
H    4.13114346   0.53909405   4.36105145
H    3.42762867  -0.27363488   5.73858653
C    2.09053258   1.08648959   4.75001897
N    1.04503669   1.40694056   4.40514060
C   -4.76922943   1.53844223   1.72088639
H   -5.49147642   1.13347560   2.39857474
H   -4.70267535   0.91325800   0.85508369
H   -5.06807753   2.52313121   1.42766886
C   -3.39540147   1.60387348   2.41364573
N   -2.37252412   1.65259001   2.92943655
C   -2.58337898  -3.70422622   1.29312154
H   -1.85955077  -3.55359579   2.06660934
H   -2.16719357  -4.33102767   0.53232673
H   -3.45303527  -4.17239495   1.70472217
C   -2.97249215  -2.34508050   0.68245480
N   -3.26220458  -1.33313473   0.22778566
C   -1.83341403   5.53268781   3.11646011
H   -1.66043901   6.51685032   2.73383239
H   -1.76690977   5.54837439   4.18427574
H   -2.80858106   5.20285233   2.82464354
C   -0.77457173   4.56836734   2.55029846
N    0.01378450   3.85038693   2.12876537
C    1.17194439  -5.88354930  -0.97225922
H    1.78927221  -5.26356168  -1.58823155
H    0.24471901  -6.07218586  -1.47182747
H    1.67162051  -6.81109989  -0.78551671
C    0.89880466  -5.16939161   0.36451805
N    0.69543971  -4.63766875   1.35980950
C   -2.75087081   1.29977928  -1.96887409
H   -3.15666249   2.27227103  -2.15459725
H   -3.53733013   0.63443465  -1.67956914
H   -2.28244367   0.93296773  -2.85821339
C   -1.70910366   1.38565162  -0.83796862
N   -0.93346067   1.44958748   0.00404190
C   -3.31239596  -2.49669678  -3.25636170
H   -4.04223617  -3.21212215  -3.57322127
H   -2.97177153  -1.93629158  -4.10183205
H   -3.75107066  -1.83240320  -2.54139482
C   -2.12085043  -3.22967108  -2.61249222
N   -1.23369062  -3.77540376  -2.13310212
C    1.41046687   3.65688359  -1.15815429
H    1.78626248   4.46305548  -1.75293553
H    1.86632812   3.68489560  -0.19052578
H    0.34978420   3.75355231  -1.05565298
C    1.74009344   2.31714927  -1.84230213
N    1.98551539   1.31965617  -2.35168130
C   -2.37938747   5.97507004  -1.69506086
H   -2.80507137   5.71177556  -2.64077192
H   -1.31195858   5.95375665  -1.76605660
H   -2.69907587   6.95887611  -1.42152104
C   -2.84290903   4.96874553  -0.62545404
N   -3.18802190   4.21949119   0.17091685
C    0.57101040  -1.50874025  -0.52778764
H   -0.04313136  -2.21797228  -0.01327816
H    0.09457782  -1.22104816  -1.44164997
H    0.71151709  -0.64531871   0.08837808
C    1.93840004  -2.14472058  -0.83983667
N    2.95648378  -2.61823685  -1.07217135
C    4.11727862  -4.20727586   1.90237321
H    3.43242528  -4.96584360   2.21931336
H    5.09666104  -4.43571396   2.26778420
H    4.13576293  -4.16755139   0.83327107
C    3.66677252  -2.84389638   2.45900653
N    3.33135025  -1.82879839   2.87344533
C    0.27343275   2.34403347  -5.57630383
H    1.15007697   1.86456649  -5.19354216
H    0.55245284   3.04284773  -6.33703080
H   -0.38312338   1.60816309  -5.99142782
C   -0.44491121   3.08744195  -4.43484608
N   -0.97975094   3.64094336  -3.58497890
C    1.91857510  -1.68698433  -4.34135118
H    2.22348157  -1.71299025  -5.36665890
H    1.91150622  -2.68124929  -3.94602053
H    2.60307001  -1.08515364  -3.78084637
C    0.50474812  -1.08474219  -4.24136286
N   -0.54791033  -0.63634554  -4.16691702
Na  -0.06351485   1.43204756   2.25249700
