91
Energy:   -776.18411661
C    1.14611690   4.56913803  -4.40183380
H    2.19365504   4.44232466  -4.22440099
H    0.95575138   5.57626668  -4.70900141
H    0.83063446   3.89588726  -5.17131631
C    0.36648661   4.27111938  -3.10763077
N   -0.21398359   4.04923095  -2.14403778
C    2.34728046   5.43331143   0.24274423
H    2.35998693   6.46305854  -0.04770306
H    2.90802189   5.31047542   1.14572787
H    1.33684462   5.12095972   0.40508621
C    2.97621753   4.57758887  -0.87250329
N    3.44448977   3.94046452  -1.70285577
C    0.56987080  -1.66235847   0.21483214
H    1.23478614  -2.30847239  -0.31932568
H    1.13769876  -0.93351325   0.75451274
H   -0.07938140  -1.16779896  -0.47710829
C   -0.26992168  -2.49322717   1.20276220
N   -0.89518535  -3.11184668   1.93832103
C    2.93443179  -3.88533292  -3.16061193
H    2.74836738  -4.85241994  -2.74225453
H    3.67127853  -3.37839597  -2.57326969
H    3.29042235  -3.99320814  -4.16387299
C    1.62935437  -3.06779968  -3.16412165
N    0.65766491  -2.45910902  -3.16673480
C    4.79946398  -3.46251205   0.49993569
H    5.23426269  -2.63367280  -0.01859664
H    4.28922325  -4.09229291  -0.19858385
H    5.57008644  -4.02199939   0.98780250
C    3.79892205  -2.94376285   1.54941895
N    3.05397311  -2.55753049   2.33080694
C   -5.37542231   0.78104987  -0.94966752
H   -5.17152142  -0.11392931  -1.49951921
H   -6.28820552   1.21519342  -1.30073059
H   -5.46848771   0.54731356   0.09033500
C   -4.22121503   1.78071601  -1.14985031
N   -3.36185524   2.52501289  -1.29889549
C   -3.35583169  -0.81460591   2.49691652
H   -2.75425063  -1.19479145   3.29595304
H   -3.76646186  -1.63083290   1.94009028
H   -4.15051527  -0.22195683   2.89958779
C   -2.48690636   0.05436367   1.56876747
N   -1.83995195   0.70135101   0.87771832
C   -2.16689451  -0.67160907  -4.12825999
H   -2.20653835  -0.17392539  -5.07464231
H   -3.16115282  -0.82309484  -3.76301821
H   -1.68103147  -1.61800237  -4.24304642
C   -1.37812645   0.19222515  -3.12664360
N   -0.79085277   0.83538899  -2.38089468
C   -1.37112908   3.11784032   3.89450950
H   -0.39737820   2.86966818   4.26209621
H   -2.00515639   2.25807194   3.95539298
H   -1.78455481   3.90842696   4.48523027
C   -1.26505288   3.57459349   2.42763377
N   -1.18607433   3.91466698   1.33547812
C    3.27871205   1.13685540   1.69428955
H    3.49709508   0.12145280   1.43706088
H    3.03607559   1.19695761   2.73468100
H    4.13335633   1.74788339   1.49149154
C    2.08356783   1.63235118   0.85899665
N    1.19372864   2.00127032   0.23708312
C   -4.72748952   4.99192658   1.13397798
H   -4.80991004   4.90856280   0.07041909
H   -3.84311166   5.54114927   1.38122143
H   -5.58456412   5.50378616   1.51910393
C   -4.64816172   3.58474035   1.75456963
N   -4.58909857   2.53702623   2.21662833
C    0.85514367  -1.98703827   4.85269043
H    1.90426407  -2.19719412   4.86169504
H    0.33335722  -2.79591598   4.38540588
H    0.50609856  -1.87050088   5.85742205
C    0.59854055  -0.68811611   4.06620707
N    0.40748787   0.27899048   3.48063446
C   -1.91612849  -4.30654505  -1.31887029
H   -0.89770444  -4.15305672  -1.60896333
H   -2.41018587  -4.90581239  -2.05486285
H   -1.94617792  -4.80632060  -0.37323796
C   -2.62757706  -2.94565086  -1.20307753
N   -3.15728285  -1.93240329  -1.11686456
C    1.18331302  -5.82859373   2.30210563
H    1.55148673  -6.82172094   2.45391688
H    0.13648394  -5.79885337   2.52156740
H    1.70270021  -5.15287674   2.94905430
C    1.41254057  -5.41456345   0.83662494
N    1.58321089  -5.10629909  -0.25449205
C    2.53486794   0.91895350  -3.03249610
H    3.33383446   1.39506040  -3.56152815
H    1.95771559   1.65822063  -2.51744429
H    1.90894617   0.39720162  -3.72596275
C    3.11648185  -0.07934565  -2.01429962
N    3.54951983  -0.82262475  -1.25620606
Na  -1.03338950   2.42333652  -0.57926994
