91
Energy:   -777.73022067
C    4.27322833   4.48299709   2.47857859
H    4.88892767   5.31254423   2.19989230
H    4.89194573   3.64030847   2.70653419
H    3.69304386   4.74272211   3.33929224
C    3.33162124   4.12810049   1.31280653
N    2.63055197   3.86386384   0.44483624
C    4.66003811   1.22067495  -1.15693609
H    5.64163948   1.26063448  -1.58091978
H    4.11922314   2.10396744  -1.42566017
H    4.14522525   0.35996712  -1.52982861
C    4.76658109   1.13065792   0.37673452
N    4.84590718   1.06363615   1.51862200
C   -0.82601510  -1.27639960  -0.86551610
H   -0.10044702  -2.06235253  -0.83851371
H   -0.32643508  -0.33085805  -0.90115426
H   -1.44059620  -1.38804063  -1.73426546
C   -1.70477676  -1.34540839   0.39726485
N   -2.35905475  -1.39678857   1.33746268
C    2.45647306  -4.52322162  -2.02513676
H    1.81165992  -4.97255791  -1.29904234
H    3.42937256  -4.96371756  -1.95934169
H    2.05748818  -4.68439433  -3.00479665
C    2.55851412  -3.01055747  -1.75488723
N    2.63448833  -1.88431026  -1.55367418
C    2.34334306  -1.40447279   1.73574924
H    2.18751595  -1.59789725   2.77652063
H    3.39281880  -1.33492244   1.53912141
H    1.92432253  -2.20178138   1.15815085
C    1.66023217  -0.07865597   1.35212279
N    1.15162506   0.90847493   1.06649547
C   -4.23769120   1.23036054  -0.95322788
H   -4.21154375   0.64009710  -1.84530723
H   -4.85348133   2.09073866  -1.11276185
H   -4.64029660   0.64731333  -0.15143992
C   -2.80959317   1.68075025  -0.59366548
N   -1.74630927   2.01608586  -0.32595493
C   -5.49055250  -2.89242485   0.42838647
H   -4.94227406  -2.56050757   1.28519559
H   -5.63298727  -3.95142355   0.48436131
H   -6.44290099  -2.40526930   0.40366996
C   -4.70399267  -2.54711032  -0.84976904
N   -4.11836313  -2.29000796  -1.80141392
C   -2.91728732  -1.53174356  -5.08510162
H   -3.49210203  -2.16399083  -4.44108949
H   -2.07397486  -2.07461648  -5.45794499
H   -3.52529708  -1.21029263  -5.90479212
C   -2.42864294  -0.30309578  -4.29563894
N   -2.06482500   0.61168834  -3.70784810
C    3.35198717   0.56706391   4.80362529
H    4.02544931   0.32985232   4.00670648
H    2.72036333  -0.27419763   4.99914882
H    3.91122146   0.80547917   5.68414460
C    2.48689040   1.77612141   4.40189460
N    1.84278653   2.67631967   4.10278785
C   -1.58643410   3.99493580  -4.11538191
H   -1.01094581   3.32743775  -4.72214360
H   -1.73271045   4.91652851  -4.63899361
H   -2.53651179   3.55216393  -3.90042946
C   -0.83677547   4.26649044  -2.79785771
N   -0.27862054   4.46867521  -1.81690106
C    0.02709880   5.67623557   3.93443314
H   -0.91932920   5.93777349   4.35960620
H    0.55506569   6.56682586   3.66424993
H    0.59999425   5.12544822   4.65089890
C   -0.19517162   4.81075268   2.68018626
N   -0.36066206   4.16636133   1.74634245
C   -1.47195336   1.22118867   3.48499666
H   -1.47102283   1.28379650   2.41683020
H   -1.08121913   2.12863719   3.89580445
H   -2.47312916   1.07427466   3.83279315
C   -0.59471156   0.03647694   3.93053556
N    0.05843484  -0.84559480   4.26225953
C   -1.98930669  -5.03667270  -1.94910831
H   -1.46895036  -5.95754114  -1.78745814
H   -2.92665804  -5.23550200  -2.42527891
H   -2.16172333  -4.55472858  -1.00947995
C   -1.14099300  -4.11878258  -2.84879804
N   -0.50938489  -3.43537166  -3.51865793
C   -0.73167846  -3.99674683   3.28239818
H   -1.13997205  -4.92398190   3.62653718
H   -1.48093773  -3.23484730   3.33734130
H    0.10054865  -3.72353984   3.89693464
C   -0.26345174  -4.15200137   1.82354254
N    0.08516433  -4.26759543   0.73735821
C    1.28516861  -0.11913491  -4.07514012
H    2.29439196  -0.39040463  -4.30488162
H    0.82655877   0.31363167  -4.93959902
H    0.73959167  -0.99127937  -3.78084615
C    1.27791972   0.90366824  -2.92387074
N    1.27252258   1.66519167  -2.06669835
Na   0.49474861   2.91782810  -0.12600080
