91
Energy:   -776.57909412
C   -2.64264392   4.84100438  -0.95348762
H   -3.55312868   4.27934654  -0.97489268
H   -2.07790716   4.63877406  -1.83953185
H   -2.86905118   5.88567523  -0.90551210
C   -1.81916662   4.43688646   0.28351434
N   -1.20605033   4.13600230   1.20451852
C   -2.17453862  -4.26429858  -1.01600394
H   -2.09338356  -5.04332888  -1.74499352
H   -3.10727546  -3.75500420  -1.14058451
H   -2.12779254  -4.68794792  -0.03455851
C   -1.01617480  -3.26634033  -1.20004907
N   -0.15372029  -2.52331506  -1.33707903
C    3.15324343  -3.74072412  -4.98358858
H    4.10978174  -4.15640389  -5.22263872
H    2.93192474  -2.94244133  -5.66083426
H    2.40332964  -4.49916501  -5.06900415
C    3.17439208  -3.19979760  -3.54187043
N    3.19013822  -2.79705321  -2.46844573
C    2.03148009   1.90124322  -3.33216591
H    1.08755155   2.39462189  -3.43452104
H    2.27631699   1.40604415  -4.24853476
H    2.78798006   2.62252970  -3.10335874
C    1.94885489   0.86574806  -2.19527416
N    1.88733667   0.09477485  -1.34880658
C   -4.40143932   3.34496403   3.20324982
H   -4.33048132   2.59964309   3.96768545
H   -5.31345854   3.89182150   3.32185397
H   -3.57101478   4.01528365   3.28048830
C   -4.38613043   2.66584270   1.82116449
N   -4.37473226   2.16020601   0.79213913
C    5.21423019   0.41762107   2.19593178
H    6.19914365   0.11809283   2.48769966
H    4.60164477   0.52550067   3.06656384
H    5.26460735   1.35213806   1.67724188
C    4.60584961  -0.65155597   1.26946886
N    4.15288262  -1.44760687   0.57967511
C    2.00112524   3.33240537   0.38629470
H    1.18699000   3.05352543  -0.24955902
H    2.91978704   3.25838579  -0.15728666
H    1.86426019   4.33982114   0.71988203
C    2.04766859   2.39038957   1.60368533
N    2.08232223   1.68901599   2.51008799
C   -1.16896611   0.58433200   0.36975489
H   -1.33163797  -0.46453561   0.23442271
H   -1.91296806   0.97836868   1.03013001
H   -0.19818236   0.74330916   0.79071126
C   -1.26123667   1.29799200  -0.99177937
N   -1.32993630   1.82934432  -2.00550351
C   -3.90851013  -1.18014833   2.31035538
H   -3.78345187  -0.58020330   3.18746801
H   -4.84975363  -1.68696732   2.35611880
H   -3.88243320  -0.55388351   1.44316944
C   -2.77134280  -2.21553525   2.23020311
N   -1.92467003  -2.98642788   2.17052610
C    0.58104529  -1.15547288   4.27513583
H    0.92788614  -0.19037900   4.58041506
H    1.06802763  -1.90996105   4.85693897
H   -0.47674515  -1.21777652   4.42378551
C    0.90339129  -1.36891737   2.78445326
N    1.14339254  -1.52783650   1.67457234
C   -4.96629192   1.01555854  -2.27815474
H   -5.40967338   0.76829024  -3.22005253
H   -4.23794725   1.78677439  -2.41829481
H   -5.72475094   1.35912328  -1.60614113
C   -4.28481072  -0.23301287  -1.68802527
N   -3.77741699  -1.16263104  -1.24864706
C   -0.17651812   3.27818659   4.47337617
H   -0.07736503   3.96471052   3.65866534
H    0.78830214   2.90126017   4.74160635
H   -0.60900231   3.78111725   5.31296968
C   -1.08539205   2.10875134   4.05151201
N   -1.76209000   1.23805363   3.73741497
C    0.40947442  -5.51809889   2.40507524
H    0.08637360  -4.75970029   3.08723182
H    1.02459280  -6.22449201   2.92231524
H   -0.44404021  -6.01898116   1.99822291
C    1.21761188  -4.87205070   1.26440194
N    1.81930696  -4.39103847   0.41511882
C    5.79344020  -0.38858015  -2.51296575
H    5.73043730  -1.24367306  -1.87285098
H    6.80538156  -0.25805699  -2.83520400
H    5.16357626  -0.53413825  -3.36559894
C    5.33421061   0.86375574  -1.74331454
N    4.99229330   1.79617674  -1.17027423
C   -1.57722766  -0.81959160  -4.13546809
H   -1.92011061   0.16107276  -4.39164944
H   -1.69414408  -0.97475712  -3.08325456
H   -2.15031677  -1.54859325  -4.66934500
C   -0.09063771  -0.95847564  -4.51277637
N    1.01619609  -1.06188113  -4.79369953
Na   2.07787825  -2.13270498  -0.45163499
