91
Energy:   -776.32536121
C   -1.82994695   5.50017796  -5.42013491
H   -2.82316181   5.83023328  -5.19767613
H   -1.84201524   4.90836428  -6.31148782
H   -1.19574795   6.34976854  -5.56465676
C   -1.29586224   4.65413748  -4.24942187
N   -0.89821189   4.02422188  -3.37777280
C    1.61192074   4.48653862   2.34143551
H    0.91431103   4.10222357   3.05595830
H    1.91594963   5.47008191   2.63316850
H    2.46825154   3.84638102   2.29906925
C    0.94590552   4.54544643   0.95415271
N    0.45002691   4.58930597  -0.07874240
C    0.49954909  -1.39179635   0.03176886
H    1.36940371  -1.98443296  -0.16067582
H    0.72878075  -0.35910883  -0.12919206
H   -0.28805229  -1.68943902  -0.62852804
C    0.05124287  -1.59675813   1.49074528
N   -0.28254149  -1.74936149   2.57701955
C    2.74969524  -3.58612933  -3.05902398
H    3.40757349  -3.14282748  -3.77706287
H    2.66656150  -4.63538888  -3.25148771
H    3.14116319  -3.43394440  -2.07490423
C    1.35906909  -2.93303463  -3.16497780
N    0.32368471  -2.44677593  -3.24386523
C    5.10166815  -3.67930619   0.29022242
H    5.36585329  -3.06369089  -0.54411815
H    4.62028846  -4.56816588  -0.06063531
H    5.98532137  -3.94277610   0.83302964
C    4.14246414  -2.90683745   1.21478703
N    3.42829316  -2.33169936   1.90316741
C   -4.82856058   2.67937733   1.00403135
H   -5.18336390   1.73144152   0.65699749
H   -5.64669727   3.36640732   1.06353970
H   -4.38940470   2.56294504   1.97278556
C   -3.77245811   3.22246308   0.02356950
N   -2.98614182   3.62681512  -0.70642891
C   -3.64437900  -2.77993901   2.34240528
H   -2.68653125  -2.98059465   2.77503118
H   -3.91214112  -3.57864732   1.68265716
H   -4.37623973  -2.69796928   3.11865262
C   -3.58425400  -1.45957476   1.55207418
N   -3.53948820  -0.47650357   0.96363675
C   -2.99479008  -1.50393231  -2.37347550
H   -3.96070909  -1.38063905  -2.81698358
H   -3.10287669  -1.91739237  -1.39252333
H   -2.40725858  -2.16454121  -2.97622064
C   -2.29462976  -0.13552361  -2.27949064
N   -1.77332857   0.88331887  -2.20951463
C   -1.59498362   1.37093909   3.37915609
H   -2.60339330   1.01345680   3.36444169
H   -1.55196035   2.29500358   3.91688549
H   -0.96771022   0.64927840   3.85939876
C   -1.10835278   1.59413658   1.93521242
N   -0.74603399   1.76031726   0.86013073
C    3.64528619   1.01998224   0.47101883
H    4.27984657   1.85243050   0.24906571
H    3.94837212   0.57734072   1.39681929
H    2.63221365   1.35501025   0.55063890
C    3.75384375  -0.02323983  -0.65659058
N    3.83466979  -0.79996607  -1.49614704
C   -2.26274701   6.83267403   0.99779594
H   -2.59625933   7.69080750   1.54302676
H   -2.95138788   6.62335847   0.20605113
H   -1.29413515   7.02587575   0.58625829
C   -2.18568739   5.62079302   1.94490007
N   -2.12831300   4.71849252   2.65006214
C    2.36220243  -0.96408626   4.77344838
H    1.70306372  -1.74038246   4.44511844
H    2.18601152  -0.76089898   5.80909831
H    3.37658252  -1.27685715   4.63888801
C    2.10450314   0.31092072   3.94910119
N    1.91263431   1.26022136   3.33533724
C   -1.05416839  -5.54283633  -2.28906280
H   -0.03813008  -5.85091665  -2.15619877
H   -1.13807694  -4.96846201  -3.18792463
H   -1.68260035  -6.40613919  -2.35747724
C   -1.49126696  -4.68358832  -1.08813079
N   -1.81670672  -4.04383911  -0.19398232
C    0.77434679  -4.97695083   2.32564334
H   -0.26813637  -4.73841064   2.29060588
H    1.28676292  -4.25004685   2.92057141
H    0.90390647  -5.94711533   2.75795597
C    1.35077901  -4.97015705   0.89760981
N    1.77995900  -4.96509877  -0.16562605
C    1.90249247   0.50635649  -4.25921422
H    2.70694568  -0.17167674  -4.06421125
H    2.19684113   1.19994056  -5.01895043
H    1.04563083  -0.04253939  -4.58997174
C    1.55427878   1.27397604  -2.97037464
N    1.29501786   1.84550368  -2.01077499
Na  -0.76432607   2.86347364  -1.28050683
