91
Energy:   -780.49920369
C    0.79161405   1.92554462  -2.64068840
H    1.48419750   1.22233116  -3.05387017
H    1.06076888   2.91428476  -2.94866196
H   -0.19519321   1.70015480  -2.98754564
C    0.82769472   1.83899235  -1.10354596
N    0.85455842   1.77455026   0.04092646
C    4.43622713   2.44252778  -2.29387130
H    3.79425672   3.22867270  -2.63261950
H    4.06338928   1.50225126  -2.64282845
H    5.42346510   2.59868661  -2.67580676
C    4.47590779   2.43961009  -0.75438537
N    4.50545184   2.43743773   0.39183189
C   -0.86246995  -1.32131265  -0.65424356
H   -0.22635018  -2.12388117  -0.96430095
H   -0.74302752  -1.15698140   0.39629337
H   -0.59908950  -0.43134413  -1.18667747
C   -2.32898828  -1.68361810  -0.95367427
N   -3.42087783  -1.95337098  -1.17661404
C    2.33425488  -4.73877984  -0.98538085
H    3.20465689  -5.25524493  -0.63815710
H    2.62451227  -3.97556070  -1.67686207
H    1.67936628  -5.43086075  -1.47225251
C    1.60632174  -4.09784093   0.21082592
N    1.06434242  -3.62063277   1.10145623
C    0.25860960  -2.48893911   4.31763000
H    0.95950322  -2.42368533   5.12347754
H    0.44669815  -3.37780023   3.75243295
H   -0.73577213  -2.52043718   4.71147255
C    0.41030643  -1.25822436   3.40443272
N    0.52325162  -0.34190129   2.72451584
C   -4.71261163   0.41263328   0.88538319
H   -4.88199104   0.47652052  -0.16919218
H   -5.40474729   1.04836107   1.39694696
H   -4.85092484  -0.59807129   1.20825288
C   -3.27360377   0.86037044   1.20222355
N   -2.20219701   1.19373111   1.43812559
C   -2.94946882  -4.05960193  -3.86130425
H   -2.82939262  -3.14197086  -4.39836579
H   -3.81314973  -3.99475643  -3.23301337
H   -3.07248589  -4.86520606  -4.55467853
C   -1.70217906  -4.31416651  -2.99466411
N   -0.77351513  -4.50370140  -2.34941114
C   -3.83417420   0.35618975  -3.88668300
H   -4.67540448   0.89074888  -4.27588517
H   -4.16062531  -0.58208078  -3.48921958
H   -3.12673400   0.18459167  -4.67089059
C   -3.17176974   1.18420683  -2.76989831
N   -2.67857951   1.80070319  -1.93840134
C    4.65334565   2.46713425   3.86604302
H    5.26467668   2.76170834   3.03875790
H    4.90446728   1.46865862   4.15739062
H    4.82121369   3.13138789   4.68792289
C    3.17045142   2.52419772   3.45449905
N    2.06636925   2.56668406   3.14808586
C   -1.67090909   4.96702100  -0.89228639
H   -2.58620541   4.45746910  -1.11020768
H   -0.94948687   4.74437089  -1.65049217
H   -1.84739660   6.02205467  -0.86668954
C   -1.13786427   4.50238389   0.47576901
N   -0.74098817   4.15644045   1.49434844
C    2.70191600   5.48455795   1.24264393
H    2.92406802   6.52865731   1.31616393
H    3.57278462   4.91603700   1.49418092
H    1.90901060   5.24017416   1.91827452
C    2.26997361   5.15180994  -0.19760068
N    1.94837287   4.90406392  -1.26992826
C   -3.25143360   0.28155576   5.30664993
H   -2.88280535  -0.49213312   5.94728938
H   -3.75871672  -0.15720508   4.47295223
H   -3.93167099   0.90207633   5.85174662
C   -2.07283880   1.13349277   4.79997682
N   -1.19532140   1.76779860   4.42273567
C    1.48481190  -2.53103078  -4.42603137
H    1.40437014  -3.42456815  -3.84291880
H    2.36497570  -1.99513034  -4.13789685
H    1.54624942  -2.78636740  -5.46330074
C    0.24538370  -1.64880552  -4.18708299
N   -0.67742693  -0.99194872  -4.00917506
C   -2.51204104  -4.37152271   1.29119499
H   -1.58540170  -4.33168796   0.75766625
H   -3.32126704  -4.44781310   0.59532709
H   -2.51536882  -5.22463228   1.93702164
C   -2.67623923  -3.09121149   2.13110102
N   -2.79849225  -2.13796159   2.75644924
C    3.36199769  -0.70491078   0.99482072
H    4.42920007  -0.68629594   1.06987234
H    2.97824729  -1.52198950   1.56929185
H    2.96198254   0.21383807   1.37003735
C    2.95405979  -0.87803152  -0.48004059
N    2.65033149  -1.00692778  -1.57814187
Na  -0.08041744   1.96347132   2.27094581
