91
Energy:   -777.88979039
C    3.59297660   3.68281733  -3.01009684
H    4.18726673   3.33997602  -2.18901265
H    3.89243348   4.67464451  -3.27749825
H    3.73103088   3.03069676  -3.84710273
C    2.10795140   3.68732898  -2.60232263
N    1.00228264   3.69068810  -2.29871619
C   -4.35141265   0.49386618   1.77518763
H   -4.58258047  -0.42746932   1.28264067
H   -5.18165366   1.16315584   1.68772148
H   -4.15274453   0.30527717   2.80953006
C   -3.10970877   1.12805213   1.12129188
N   -2.18520379   1.60023240   0.63443677
C   -0.06622473  -1.04267176   1.47597335
H    0.67031404  -1.81880514   1.47070206
H    0.36057175  -0.14868281   1.88035884
H   -0.39768164  -0.85871149   0.47537651
C   -1.26350982  -1.47706169   2.34166024
N   -2.15494299  -1.80048474   2.98620349
C   -0.84638777  -1.41282885  -3.53024452
H   -1.61269659  -1.10794760  -4.21194708
H   -1.18900422  -2.25096862  -2.96012630
H    0.02983569  -1.68883994  -4.07883310
C   -0.51147049  -0.24808351  -2.58008732
N   -0.26210935   0.61912234  -1.87265210
C    3.58657511  -2.77460877   3.71579833
H    3.22088567  -3.57881664   3.11212531
H    4.06690350  -3.17145042   4.58568363
H    4.28935932  -2.19686359   3.15258971
C    2.41009474  -1.87751488   4.14325181
N    1.53415162  -1.20958770   4.46151036
C   -0.63901179   3.83621804  -5.27572612
H   -0.99726824   4.28493426  -4.37283839
H   -0.97988003   4.40427709  -6.11597421
H    0.43083021   3.82056507  -5.26612647
C   -1.17256857   2.39534773  -5.37969687
N   -1.56982584   1.32255429  -5.45710782
C   -2.35915669  -4.03114635   0.14265552
H   -2.63964579  -4.81192474  -0.53307457
H   -2.84150372  -4.18490700   1.08531033
H   -1.29794460  -4.04167921   0.27909986
C   -2.78859578  -2.67094685  -0.43789543
N   -3.10833270  -1.65821650  -0.87014200
C   -4.22783578   1.08750735  -3.02343948
H   -4.33929924   0.36133984  -2.24552121
H   -3.86323517   0.60909931  -3.90836390
H   -5.17572444   1.54006912  -3.22738562
C   -3.22791118   2.16984697  -2.57589981
N   -2.48342187   2.97569801  -2.24268619
C    2.61224231   1.85636792   2.97086255
H    1.89311224   1.54093458   3.69767334
H    3.06998688   2.76783927   3.29426474
H    3.36168119   1.10084300   2.85940596
C    1.90980906   2.08591024   1.61975269
N    1.38681556   2.25681493   0.61378999
C    3.05268931  -0.13202450  -1.68832398
H    2.53644121   0.80519599  -1.69073881
H    2.48355796  -0.85412650  -2.23564226
H    4.01196378  -0.01200780  -2.14689521
C    3.23418653  -0.61436951  -0.23711688
N    3.36931946  -0.97349730   0.84337277
C   -1.54554853   5.12152384   3.27008890
H   -2.36903463   4.50381213   3.56198457
H   -1.81993136   6.15114936   3.36747697
H   -0.70467257   4.91548052   3.89887571
C   -1.17567012   4.82522368   1.80482572
N   -0.90027883   4.60461474   0.71387068
C   -1.31343020   0.18632203   5.80768448
H   -0.38229744  -0.18983340   6.17700691
H   -1.91737338  -0.62859655   5.46700952
H   -1.82433754   0.70564698   6.59137726
C   -1.04901349   1.15314025   4.63851968
N   -0.85214322   1.87298036   3.76802334
C    2.77488226  -4.53826628   0.00063398
H    3.37968394  -3.90149860   0.61189663
H    3.38594880  -5.00178030  -0.74545685
H    2.32214956  -5.29242796   0.60987314
C    1.67653563  -3.70219150  -0.68216441
N    0.85876664  -3.07969582  -1.19053884
C   -0.70540300  -4.22834213   4.92496381
H   -1.75546496  -4.10545473   4.76013441
H   -0.32369264  -3.37467637   5.44501290
H   -0.53683661  -5.10767979   5.51083900
C    0.01391539  -4.36826005   3.57048825
N    0.54948063  -4.47243530   2.56201963
C    1.21203683  -0.31427616  -6.89429303
H    0.14840342  -0.41417238  -6.83425227
H    1.65975822  -1.28526483  -6.93461237
H    1.46954854   0.23412002  -7.77625019
C    1.72786628   0.43771834  -5.65331589
N    2.11192475   0.99761242  -4.72935200
Na  -0.57254835   2.73453044  -0.75136461
