91
Energy:   -778.49094497
C   -0.33529238   6.74351021  -3.55910418
H   -0.29393067   7.41735045  -2.72896641
H   -1.33754329   6.69664781  -3.93085157
H    0.31641241   7.09097564  -4.33334428
C    0.10970282   5.34103784  -3.10451588
N    0.44102198   4.29683342  -2.76605423
C    4.73361379   3.79753549   1.14436974
H    5.41616415   3.18504926   0.59311135
H    5.26781289   4.60344254   1.60267559
H    3.99285974   4.19235373   0.48081788
C    4.04853504   2.95090947   2.23317252
N    3.53846277   2.32055791   3.04383568
C    0.28121917  -4.76904505   0.08378433
H    0.53579620  -4.11783557   0.89373305
H    1.02272820  -5.53540276  -0.00430261
H   -0.67278078  -5.21571537   0.27158423
C    0.22064652  -3.96044486  -1.22545082
N    0.17554743  -3.35840526  -2.20023591
C    3.19324207  -1.32802429  -1.94132364
H    2.55613807  -1.78198850  -2.67133403
H    4.21135274  -1.39950072  -2.26263481
H    2.92691268  -0.29807009  -1.82659745
C    3.02819220  -2.05414796  -0.59332402
N    2.90530507  -2.59478003   0.41032297
C    5.19292018  -0.88763713   2.58671624
H    4.57912544  -1.75840525   2.48712174
H    4.77014590  -0.23546888   3.32213285
H    6.17693699  -1.17776094   2.89075274
C    5.26855622  -0.15545399   1.23402003
N    5.32487069   0.38968964   0.22687621
C   -1.43118284  -1.10150930  -0.15156586
H   -1.58019266  -0.36550103   0.61065987
H   -0.43666927  -1.01890284  -0.53759440
H   -1.57301563  -2.07779829   0.26273156
C   -2.44394479  -0.87457584  -1.28928922
N   -3.19799210  -0.70561356  -2.13637597
C   -6.03832288  -2.16589293  -0.41841786
H   -7.05790365  -1.88151625  -0.26194060
H   -5.95756309  -3.23252901  -0.39264143
H   -5.70993115  -1.80626181  -1.37116306
C   -5.15975950  -1.55762307   0.69051594
N   -4.50562914  -1.10473852   1.51616757
C   -3.99285499   2.16442092   0.17603476
H   -4.48148237   3.11364899   0.24751581
H   -3.98008364   1.69649236   1.13820878
H   -4.52121312   1.54251107  -0.51603815
C   -2.54753472   2.36679505  -0.31558909
N   -1.47142807   2.51747179  -0.68162539
C   -2.90086800  -0.26260349   4.53918775
H   -3.76131329  -0.71313501   4.09023849
H   -3.20303462   0.31824105   5.38548206
H   -2.22202156  -1.02693125   4.85520936
C   -2.20460614   0.64990544   3.51247120
N   -1.68620753   1.32930981   2.74803406
C    5.66006724   2.04681836  -2.77994259
H    6.29536554   1.75604502  -1.96954323
H    6.05983082   2.92056253  -3.25074966
H    5.60483339   1.25103811  -3.49309203
C    4.24984485   2.35310536  -2.24229861
N    3.19987017   2.58114996  -1.84199822
C    0.39069196   3.91924274   3.21073876
H    0.74631105   2.99326064   3.61197734
H   -0.67554040   3.95713493   3.29205182
H    0.81924561   4.73295197   3.75765573
C    0.79664771   4.02629552   1.72907091
N    1.09890022   4.10600117   0.62590184
C    1.42640421  -0.46969766   2.80427576
H    1.78583613  -1.46451229   2.64286715
H    0.43647769  -0.50932092   3.20847197
H    2.07227582   0.03578541   3.49146992
C    1.40427277   0.29160321   1.46579484
N    1.38779491   0.85842631   0.46923495
C   -3.14954818  -4.08001472  -3.34608410
H   -3.73904988  -4.86581411  -3.77023884
H   -2.13670325  -4.17516561  -3.67773233
H   -3.53948371  -3.13359371  -3.65775161
C   -3.19763036  -4.17424381  -1.80972184
N   -3.23342974  -4.24440165  -0.66583031
C   -3.36589943  -4.30953236   2.79997485
H   -3.31942553  -4.99030761   1.97578712
H   -4.22706736  -3.68290791   2.69686956
H   -3.43336613  -4.86079591   3.71455444
C   -2.09624517  -3.43818670   2.81827270
N   -1.15092987  -2.78943026   2.83189629
C   -0.65122212  -0.87528025  -4.60889786
H   -1.71622627  -0.82750588  -4.51733391
H   -0.32458471  -1.88210305  -4.45232541
H   -0.36270655  -0.55492447  -5.58819865
C   -0.00377158   0.04396136  -3.55656585
N    0.47828477   0.72837853  -2.77305683
Na   0.87995591   2.52450670  -1.20270760
