91
Energy:   -778.03937829
C    1.20086415   6.91585634  -0.67799796
H    2.09834442   7.35966671  -1.05543896
H    1.23207256   6.90237023   0.39146136
H    0.35648192   7.48707491  -1.00300117
C    1.07952567   5.47438079  -1.20622633
N    0.98918366   4.40113672  -1.59951636
C    4.80732896   4.11520597   0.86725518
H    5.30257946   3.43570270   1.52899716
H    5.39334969   5.00463039   0.76526014
H    4.68696793   3.65549286  -0.09142942
C    3.42433411   4.47472029   1.44142824
N    2.39463158   4.74239504   1.86892618
C   -0.19632566  -1.44079898  -0.26311986
H    0.67508293  -1.30204565   0.34210304
H   -0.57443131  -0.48735220  -0.56787294
H    0.05829129  -2.01662519  -1.12827504
C   -1.27277312  -2.18399273   0.54960637
N   -2.07423718  -2.73733425   1.15471799
C    2.35204195  -4.16301001  -3.03846975
H    2.73931408  -5.10122814  -3.37709524
H    3.08633326  -3.39921394  -3.18790510
H    1.46844728  -3.92138901  -3.59144249
C    2.00954419  -4.25972643  -1.54015696
N    1.75453904  -4.33173620  -0.42459499
C    4.04898699  -1.86133937   0.75204991
H    4.74256845  -2.35927838   0.10714552
H    3.05079612  -2.05028745   0.41617387
H    4.16455257  -2.22746480   1.75079705
C    4.32106924  -0.34578582   0.72619122
N    4.52364684   0.78261269   0.70693825
C   -4.41995561   2.26862767  -3.54229143
H   -3.96299568   1.48604902  -4.11120131
H   -4.98051176   2.90399963  -4.19572724
H   -5.07460256   1.84244616  -2.81105565
C   -3.32865028   3.09387953  -2.83545901
N   -2.51612387   3.70831705  -2.30919015
C   -4.57954097  -3.18897720  -1.50940111
H   -4.17608817  -3.46766354  -0.55837012
H   -4.30330258  -3.91860570  -2.24168091
H   -5.64618100  -3.13656936  -1.44283112
C   -4.02262293  -1.81318328  -1.92005105
N   -3.60797214  -0.78884217  -2.22579860
C   -0.63507144  -1.04346242  -4.14356537
H   -1.59156974  -1.48667370  -3.96033069
H    0.13556478  -1.71299366  -3.82302391
H   -0.52644926  -0.84952916  -5.19022204
C   -0.52390353   0.27893840  -3.36222181
N   -0.44113398   1.26352592  -2.78047601
C   -4.32797227   0.18363436   1.43443436
H   -4.10777817  -0.86055823   1.51238682
H   -5.26822119   0.31397783   0.94063111
H   -4.37705204   0.61187784   2.41376974
C   -3.22099146   0.88254470   0.62343633
N   -2.39679393   1.40291522   0.01961143
C    1.85175001   1.44913649   2.91297604
H    2.91739785   1.35623784   2.88719416
H    1.42921905   0.58187063   3.37581144
H    1.58308813   2.31959929   3.47423748
C    1.31281375   1.57824013   1.47614621
N    0.91155121   1.67436366   0.40636109
C   -0.73074697   4.48358826   3.59796593
H   -1.37254538   5.24458267   3.99024451
H    0.28943302   4.74483894   3.78738603
H   -0.95365990   3.55016468   4.07117766
C   -0.95450598   4.35575144   2.07968083
N   -1.12110474   4.26057112   0.94924856
C   -1.59094904  -1.48869228   4.57902534
H   -0.63568067  -1.73395045   4.99400842
H   -1.86191701  -2.22281275   3.84927018
H   -2.32453208  -1.47221159   5.35779578
C   -1.52001873  -0.10283657   3.91121335
N   -1.46720790   0.92899600   3.41399697
C   -1.44094499  -5.90600056  -0.56646164
H   -0.44841556  -6.15605461  -0.25459871
H   -1.92792514  -6.78149393  -0.94230840
H   -1.99077176  -5.52223216   0.26739172
C   -1.37721839  -4.83839137  -1.67450024
N   -1.32977103  -4.04350781  -2.49948535
C    0.80521139  -4.69345248   2.77661798
H    1.57115635  -5.20378804   2.23092016
H   -0.13464106  -4.82886674   2.28342489
H    0.74826027  -5.09142848   3.76821809
C    1.13747581  -3.19126484   2.84468153
N    1.38486178  -2.07281786   2.89535794
C    3.12586009   1.75525883  -2.32774216
H    4.12773203   1.87495680  -2.68386741
H    3.04598041   2.16577085  -1.34285729
H    2.45112264   2.26575649  -2.98273880
C    2.76999738   0.25741512  -2.28998038
N    2.50504141  -0.85779760  -2.26186502
Na  -0.72858750   2.82418884  -0.95182806
