91
Energy:   -777.64476550
C    4.17128081   1.73388876   0.22545796
H    4.20935505   2.73538678   0.60022754
H    5.06388928   1.21427740   0.50501701
H    3.32172113   1.23080741   0.63783714
C    4.05452411   1.76439331  -1.30980663
N    3.96759344   1.78710533  -2.45288089
C    3.67881259  -1.56391392  -3.64524935
H    4.15077410  -0.64452741  -3.92252349
H    2.78747831  -1.69551041  -4.22240154
H    4.34750386  -2.37830758  -3.83102888
C    3.31997966  -1.52562450  -2.14812782
N    3.05281224  -1.49711629  -1.03345280
C   -0.27654942  -1.99788412  -0.29968686
H    0.39960943  -1.78320872  -1.10070113
H   -0.33871446  -1.15094649   0.35125957
H   -1.24573342  -2.21275606  -0.69895057
C    0.23465985  -3.21656051   0.49094134
N    0.61527839  -4.12392048   1.07959997
C    0.29458747  -5.52279649  -2.42561988
H   -0.73817534  -5.76746974  -2.28984003
H    0.79308493  -5.54187278  -1.47902838
H    0.74707900  -6.23694701  -3.08147012
C    0.41228085  -4.11534892  -3.03949251
N    0.49990893  -3.06744023  -3.49654858
C    3.44640401  -1.94038319   2.22713855
H    3.16747730  -2.89480555   1.83194489
H    3.84587745  -2.06503110   3.21191414
H    4.18671950  -1.49538980   1.59562216
C    2.20740375  -1.02778487   2.28749294
N    1.28491173  -0.34831394   2.33242952
C   -4.12027265  -1.08331033   0.46541597
H   -4.38516320  -1.66622815   1.32270238
H   -3.76254449  -1.72961620  -0.30867601
H   -4.98035107  -0.55094994   0.11647957
C   -3.01601743  -0.08034634   0.84788642
N   -2.19384923   0.66640595   1.13265305
C   -2.76679925  -5.51086055   1.41944189
H   -3.20536367  -6.48386950   1.34318566
H   -3.32129966  -4.92372070   2.12136439
H   -1.75372341  -5.60130345   1.75170157
C   -2.79560023  -4.82532609   0.04074213
N   -2.81704386  -4.31491453  -0.98576251
C   -3.49977854   2.83549866  -1.33991000
H   -3.63305602   1.82935084  -1.67873718
H   -4.33104079   3.43101251  -1.65497413
H   -3.43739004   2.84684035  -0.27179103
C   -2.20135284   3.41018207  -1.93608924
N   -1.23461589   3.83805999  -2.37997178
C    3.04557070   5.26358489   2.90228394
H    3.35416263   5.59941406   1.93435317
H    3.90149005   5.17277881   3.53793747
H    2.36167575   5.97037529   3.32375056
C    2.35384124   3.89368254   2.77391767
N    1.83881721   2.87372797   2.67834315
C    2.05216119   4.58726358  -3.11948972
H    1.80604493   5.55714556  -3.49850939
H    1.28492654   3.89280040  -3.39146575
H    2.98537501   4.26836881  -3.53460076
C    2.16749891   4.64983660  -1.58509022
N    2.25337308   4.69642505  -0.44266004
C   -0.67701036   6.19636328   0.30210998
H   -0.74143077   6.09400912  -0.76103338
H    0.28794263   6.57596115   0.56606126
H   -1.43204571   6.87429698   0.64156043
C   -0.88641798   4.82161938   0.96379546
N   -1.04233147   3.79806006   1.45645037
C   -3.37119713   0.27458451   5.12257294
H   -3.72249341  -0.55317934   4.54266079
H   -4.10407685   1.05411830   5.11191989
H   -3.20212942  -0.04225770   6.13050459
C   -2.05412291   0.80001663   4.52187617
N   -1.07350129   1.19122472   4.07463013
C   -2.82221968  -2.52721648  -4.16538336
H   -2.89728621  -3.43206018  -3.59923578
H   -1.98467328  -2.58973213  -4.82833652
H   -3.71762172  -2.38703929  -4.73415804
C   -2.63091081  -1.33669040  -3.20744361
N   -2.48847265  -0.45028962  -2.49421392
C    0.00792394  -2.91848573   4.42996345
H   -0.25483355  -3.46300109   5.31277810
H    0.46942896  -1.99333500   4.70565955
H    0.69109445  -3.49719110   3.84406478
C   -1.26138102  -2.63341249   3.60582866
N   -2.20643626  -2.42116251   2.99222284
C    0.58704232   0.84906847  -3.00200875
H   -0.24683911   1.33966571  -3.45901672
H    0.49391600  -0.20883249  -3.13266916
H    1.49373417   1.18645940  -3.45914806
C    0.61628209   1.17997161  -1.49826404
N    0.63805242   1.42634404  -0.37865776
Na  -0.07949496   1.62781515   1.91040521
