91
Energy:   -776.49198562
C    2.99326308   4.09078197  -3.94684145
H    3.68059537   3.29677189  -3.74184758
H    3.17681692   4.90360627  -3.27563080
H    3.12403084   4.42431879  -4.95508352
C    1.55162766   3.58365895  -3.75680574
N    0.47826456   3.20608281  -3.61531552
C    0.19774912   5.05333254   2.02997287
H    0.10631167   6.10958776   2.17441761
H    1.15641206   4.72767768   2.37611353
H   -0.56985215   4.55033819   2.58014018
C    0.05436443   4.72574945   0.53206428
N   -0.05239199   4.48184895  -0.58319676
C    0.08594658  -1.31850884   0.56561790
H    1.00793497  -0.77571575   0.55101447
H   -0.64175386  -0.80140007  -0.02425469
H    0.24183286  -2.29724195   0.16228175
C   -0.41804343  -1.43533135   2.01611663
N   -0.79328690  -1.52231102   3.09607887
C    3.26060438  -2.31290706  -1.48994683
H    4.00609306  -2.13293301  -2.23610777
H    3.54147090  -3.16211408  -0.90269856
H    3.17473650  -1.45433808  -0.85718692
C    1.90700329  -2.58540985  -2.17193386
N    0.89918574  -2.78830056  -2.67970420
C    4.95694082  -3.41109964   2.34485864
H    5.96670093  -3.14353356   2.11314094
H    4.64613499  -4.21432850   1.70993957
H    4.89560219  -3.72045731   3.36732355
C    4.03924928  -2.19489969   2.12058219
N    3.35598622  -1.28938354   1.95359819
C   -5.15660336   2.00498979  -0.74019493
H   -5.26598690   0.97337167  -1.00230076
H   -6.03983819   2.53985863  -1.02074912
H   -5.00801190   2.09083347   0.31595399
C   -3.94183337   2.59638777  -1.47923641
N   -3.03738190   3.03671044  -2.02948638
C   -3.98459740  -2.91446860   2.11514494
H   -3.21098538  -2.87959917   2.85352746
H   -3.93078020  -3.84276821   1.58574658
H   -4.93814628  -2.83139133   2.59341451
C   -3.80307903  -1.74816407   1.12601156
N   -3.66793035  -0.87979734   0.38955680
C   -2.52435803  -2.12306124  -2.71732037
H   -3.40290919  -2.04688933  -3.32332852
H   -2.79752536  -2.43411526  -1.73064712
H   -1.85675989  -2.84120002  -3.14567597
C   -1.82758538  -0.75142113  -2.64868158
N   -1.30880646   0.26982728  -2.59757688
C   -2.43502684   1.59166944   3.01850183
H   -3.12617993   2.38894722   3.19614116
H   -1.62373599   1.66164264   3.71262718
H   -2.93294859   0.65310666   3.14528087
C   -1.89129931   1.69430533   1.58134274
N   -1.48646945   1.77072240   0.51131247
C    3.84619036   1.57648935   0.13943382
H    4.45858691   0.82259268  -0.30946535
H    3.75836787   1.38654980   1.18877136
H    4.29319780   2.53660965  -0.01305374
C    2.44783680   1.55305241  -0.50528164
N    1.40669901   1.53560254  -0.98530160
C   -3.32044483   6.34637995  -0.68077547
H   -4.29638158   6.40657383  -1.11531470
H   -2.62420453   5.99748920  -1.41454912
H   -3.02214147   7.31520076  -0.33828395
C   -3.34722494   5.36750817   0.50779210
N   -3.36716394   4.63869363   1.39273467
C    1.73450555   0.16933558   4.64407819
H    1.81951968  -0.81285456   4.22817518
H    0.91295686   0.19672633   5.32906475
H    2.63808620   0.41732003   5.16074523
C    1.49408366   1.18662253   3.51318273
N    1.31507863   1.94403891   2.67117964
C   -0.22262008  -5.80356155  -1.68765785
H    0.80179544  -5.79511359  -1.37878627
H   -0.30039792  -5.40168166  -2.67626407
H   -0.58871417  -6.80896529  -1.68153254
C   -1.05817035  -4.94709555  -0.71816224
N   -1.68027551  -4.30941769   0.00367131
C    0.23059229  -4.83435040   3.04409059
H    0.43765182  -4.10360478   3.79777313
H    0.35345234  -5.81480502   3.45459423
H   -0.77524176  -4.71564615   2.69897284
C    1.20340558  -4.64580115   1.86524222
N    1.92770929  -4.50541766   0.98753602
C    1.14867332  -0.08737119  -5.06526233
H    1.43943462  -0.12446525  -6.09433088
H    0.41195074   0.67674475  -4.93011140
H    0.73928264  -1.03269070  -4.77600569
C    2.37974291   0.22681475  -4.19500096
N    3.29633018   0.46074046  -3.54705181
Na  -0.72290079   2.40871847  -1.68091739
