91
Energy:   -777.26880831
C    1.23905361   4.99042567  -5.63979881
H    1.80770762   5.83705102  -5.31613491
H    0.34924011   5.32505436  -6.13087383
H    1.82379441   4.40687820  -6.31983530
C    0.85969286   4.13017349  -4.42010557
N    0.57724155   3.48967663  -3.51198851
C   -0.81373753   4.73085431   2.87803351
H   -0.48061544   5.74748169   2.89799899
H   -0.11092935   4.13587216   2.33309682
H   -0.89292989   4.36174884   3.87922720
C   -2.19072739   4.65523619   2.19262790
N   -3.21595892   4.59893506   1.68231228
C    0.61096952  -1.42360369   0.28368599
H    1.58318989  -1.77492090   0.55984529
H    0.66590473  -0.38595795   0.02839688
H    0.25672933  -1.97993047  -0.55887765
C   -0.35752733  -1.61070936   1.46631244
N   -1.07861726  -1.75001803   2.34683159
C    3.92027926  -3.88408973  -1.99663259
H    3.76091382  -4.87202185  -1.61782793
H    4.31459454  -3.26337631  -1.21937497
H    4.61460683  -3.92162881  -2.80989708
C    2.58281205  -3.30154007  -2.49000604
N    1.58700692  -2.86780536  -2.85734500
C    4.94846614  -2.65869500   1.85611094
H    5.27591942  -1.90403957   1.17188166
H    4.74088485  -3.56084645   1.31951810
H    5.71588398  -2.84211787   2.57883149
C    3.67142978  -2.18241835   2.57300611
N    2.72061817  -1.82780873   3.10676716
C   -5.06109069   2.49511775  -0.72435443
H   -5.20708157   1.44396785  -0.58771351
H   -5.87995092   2.89942880  -1.28193813
H   -5.00832468   2.97498266   0.23055107
C   -3.74836761   2.73543583  -1.49286294
N   -2.77098560   2.91436357  -2.06505246
C   -4.02655961  -3.06230752   0.82273280
H   -4.93241418  -2.97484631   1.38547449
H   -3.20806131  -3.23731930   1.48931400
H   -4.10977914  -3.88004778   0.13769670
C   -3.78105753  -1.75936312   0.03936530
N   -3.59827007  -0.78926180  -0.54388741
C   -1.66506514  -1.73225259  -3.20760196
H   -1.02577894  -2.29732933  -3.85328115
H   -2.56080102  -1.47151571  -3.73159872
H   -1.91275232  -2.31931279  -2.34800294
C   -0.93948363  -0.44930059  -2.76132219
N   -0.39925521   0.50591549  -2.42904662
C   -3.04836610   1.03279051   2.47118820
H   -3.43933102   1.91698666   2.92971166
H   -2.56453168   0.43099682   3.21189578
H   -3.84821591   0.47764493   2.02739460
C   -2.03084111   1.42533739   1.38392105
N   -1.27324750   1.71760638   0.57440125
C    2.83996782   1.56835761   1.92154403
H    3.84244823   1.26589886   1.70142609
H    2.28562438   0.72836685   2.28488678
H    2.85449506   2.33563137   2.66718404
C    2.17407604   2.10833122   0.64224084
N    1.67828933   2.51036612  -0.31025853
C   -2.60142802   6.89334167  -1.04236868
H   -3.07253948   6.82178384  -2.00040503
H   -2.17495359   7.86781489  -0.92652134
H   -3.32801110   6.72840059  -0.27440347
C   -1.49144558   5.83120844  -0.93554168
N   -0.66501321   5.04040198  -0.85600412
C    0.48266277  -0.63487340   5.33020640
H    1.52727636  -0.76009453   5.52514821
H    0.12074295  -1.47365692   4.77311095
H   -0.04748993  -0.56677833   6.25713696
C    0.26311729   0.65456897   4.51734838
N    0.09965569   1.61461742   3.91213864
C    0.19769760  -5.98118874  -2.02565473
H    1.13464685  -6.15805936  -1.54012094
H    0.37121152  -5.54991117  -2.98939311
H   -0.32601624  -6.90741829  -2.13844532
C   -0.64678434  -5.01426467  -1.17506193
N   -1.27553953  -4.29434576  -0.54175693
C    0.47248341  -4.78453650   2.78703478
H   -0.52542050  -4.69381295   2.41172528
H    0.68006446  -3.96982606   3.44889284
H    0.57156686  -5.70876327   3.31702198
C    1.46735317  -4.75748890   1.61183157
N    2.20807893  -4.73735073   0.73683937
C    2.97708863   0.52680201  -3.04865739
H    2.22605513  -0.10598100  -3.47343323
H    3.80047470   0.60809767  -3.72713029
H    2.56547982   1.49804560  -2.86931644
C    3.46536488  -0.07733425  -1.71891843
N    3.82890874  -0.52714116  -0.72886734
Na  -0.42647288   2.70521398  -1.46622887
