27
Energy:   -105.56713274
O    0.45294854   0.72906970  -2.57657376
H    0.88160019   0.10065204  -1.99555668
H   -0.42228706   0.84072940  -2.20545842
C    1.76008391   2.97844858  -0.47854520
H    2.16362871   3.95117412  -0.28918628
H    0.81833078   3.07392605  -0.97742814
H    2.43658891   2.42573652  -1.09640397
C    1.56103975   2.23652564   0.85619514
N    1.41284232   1.68413028   1.84996999
C   -1.61605018  -2.03011497  -2.06632815
H   -1.46361457  -2.93475479  -2.61704620
H   -0.84880256  -1.32720474  -2.31562193
H   -2.57173353  -1.61801827  -2.31481305
C   -1.56423684  -2.33288690  -0.55727397
N   -1.52565945  -2.55831436   0.56628547
C   -1.85933697   0.54309817   2.22314593
H   -0.98330405   0.00239539   2.51487698
H   -2.72676450  -0.05373247   2.41357117
H   -1.92122706   1.45169937   2.78485099
C   -1.78264672   0.87259001   0.72076325
N   -1.72554734   1.11791166  -0.39782895
C    1.53207697  -1.75360302   1.91485800
H    2.38058860  -2.37189920   2.12134782
H    0.63686345  -2.27650058   2.17956537
H    1.60050509  -0.85160085   2.48635496
C    1.50080741  -1.40934536   0.41415521
N    1.47752579  -1.15302988  -0.70318624
