27
Energy:   -104.24615695
O   -1.87447930   0.58962666   2.76132977
H   -2.04195974   0.68911899   1.82416200
H   -2.68555259   0.87538181   3.18172954
C    2.62925801  -0.89393527  -2.18147177
H    3.56265135  -1.22599266  -2.58571792
H    2.45050630   0.11760088  -2.48104067
H    1.84046620  -1.51847212  -2.54569740
C    2.67840882  -0.97301071  -0.64428887
N    2.71500384  -1.03188597   0.50021367
C   -0.47388065  -2.21584673   1.46235634
H   -0.12602682  -3.15909650   1.82865919
H   -1.46222151  -2.03319652   1.82939903
H    0.18072841  -1.43919042   1.79879512
C   -0.49420584  -2.23895650  -0.07733610
N   -0.50933887  -2.25616277  -1.22370712
C    1.05230241   1.87823022   1.62412361
H    0.17590958   2.36122066   2.00301147
H    1.92250959   2.33627142   2.04583065
H    1.03100586   0.84172814   1.88890462
C    1.09185632   2.01563654   0.09077597
N    1.12130601   2.11794180  -1.05087105
C   -1.67919089   0.73016530  -2.63614577
H   -2.51680012   1.06516593  -3.21154611
H   -1.44513612  -0.27963400  -2.90151875
H   -0.83518500   1.35647269  -2.83687494
C   -2.02526186   0.79995666  -1.13715810
N   -2.28292742   0.85191949  -0.02109364
