27
Energy:   -106.67647343
O    0.32680937  -1.45738865  -1.25701246
H   -0.44150688  -1.94077177  -0.95326461
H    0.01795015  -0.55755381  -1.36253533
C    0.11585536   2.72962064   0.99586577
H    0.14023139   3.76465187   0.72565042
H    1.08338967   2.42763865   1.33877003
H   -0.60131458   2.58146375   1.77600415
C   -0.27956613   1.88781138  -0.23157018
N   -0.57397540   1.26104612  -1.14545204
C   -3.68664285  -0.05905010   0.18476308
H   -3.22538911   0.77319314  -0.30464100
H   -3.78053154   0.14914263   1.23010503
H   -4.65692661  -0.22620773  -0.23417229
C   -2.81888905  -1.31592034  -0.01241846
N   -2.17280691  -2.25171736  -0.15922907
C    0.86835289  -1.83480608   2.02883431
H    0.43037458  -2.72950448   1.63820666
H    1.38769147  -2.05902796   2.93708046
H    1.55626163  -1.43311011   1.31446676
C   -0.23882143  -0.80253740   2.31200636
N   -1.06316303  -0.03396645   2.52284083
C    2.84479448   0.26444024  -2.51728047
H    2.02863335   0.79306203  -2.96375576
H    2.64324830  -0.78620134  -2.53802906
H    3.74218991   0.46632506  -3.06392756
C    3.01795396   0.72519610  -1.05806155
N    3.14687907   1.06824979   0.02839325
