27
Energy:   -105.95829821
O    0.77836209  -0.06829179  -1.85661627
H    0.22111191   0.66734765  -2.11066096
H    0.22843310  -0.59768545  -1.27907640
C   -0.94365602  -1.37121273   2.66182229
H   -1.62554063  -0.61197158   2.98351537
H    0.03225078  -1.16043456   3.04663079
H   -1.27225438  -2.32269321   3.02459923
C   -0.89389208  -1.39789485   1.12285783
N   -0.85684056  -1.41776091  -0.02297116
C    1.22838816   2.50194645   0.49360131
H    1.66930867   1.58497436   0.16246465
H    1.85820840   2.95485249   1.23055564
H    1.11857698   3.16577440  -0.33836807
C   -0.15463454   2.21443812   1.10694231
N   -1.18435780   2.00037510   1.56360256
C   -3.51115830   0.94278971  -0.92913587
H   -4.40370048   1.23182974  -1.44364971
H   -3.53676978   1.32308852   0.07067210
H   -3.44434383  -0.12480308  -0.90304842
C   -2.28586410   1.51597871  -1.66514435
N   -1.37357687   1.94274398  -2.21313612
C    3.03656448  -2.39883520  -0.94039155
H    3.93696367  -2.97368152  -0.87929165
H    3.13033269  -1.67082323  -1.71891913
H    2.21326155  -3.04741101  -1.15584641
C    2.79064693  -1.68581363   0.40226432
N    2.60755014  -1.15493666   1.40193265
