27
Energy:   -105.47726451
O   -1.88131990   0.65404318  -1.01385998
H   -2.34976171   0.39652891  -0.21983194
H   -1.28525892  -0.07444648  -1.18777368
C   -0.42397367   2.28708694   1.49185669
H   -0.16521253   2.59737670   0.50106755
H   -0.16622733   3.05932682   2.18619918
H   -1.47587435   2.09792980   1.54307808
C    0.34659369   1.00129609   1.84479838
N    0.92031612   0.04396636   2.10757951
C   -1.28833548  -2.61253767   1.96324197
H   -1.69904906  -3.13639744   2.80096835
H   -0.29669186  -2.28623350   2.19790689
H   -1.25806000  -3.26413040   1.11506192
C   -2.16801608  -1.39039668   1.64054482
N   -2.82297827  -0.48045717   1.40028212
C    0.61650915   2.08116748  -2.86293149
H    0.93587379   2.90863731  -3.46142969
H   -0.30190170   2.32882542  -2.37294563
H    0.46790829   1.22537212  -3.48777642
C    1.69256396   1.76549221  -1.80744338
N    2.49373568   1.53045762  -1.02158449
C    2.47293514  -1.97715432  -0.20640813
H    3.17669139  -2.07373000  -1.00659590
H    2.44279804  -2.88817959   0.35397014
H    2.76994977  -1.17368048   0.43477139
C    1.07594559  -1.68336338  -0.78408198
N    0.03582336  -1.46462266  -1.21418642
