27
Energy:   -104.03418292
O    0.83904238  -1.06223661  -3.09019136
H    1.06513359  -1.38042536  -2.21619449
H    1.30183123  -1.65046011  -3.68689183
C    1.25024374   1.89379139  -1.52373178
H    0.24777233   1.59376568  -1.74719505
H    1.93368763   1.32685571  -2.12071376
H    1.36733051   2.93525637  -1.73946420
C    1.54088796   1.64263622  -0.03240787
N    1.75728580   1.45563977   1.07795057
C   -2.07590885  -0.89621513  -1.32184185
H   -3.11133952  -0.87531783  -1.59081545
H   -1.58553079  -1.68570232  -1.85206673
H   -1.62254315   0.03918784  -1.57557385
C   -1.94394797  -1.13630169   0.19359366
N   -1.84569711  -1.31505705   1.32190428
C   -1.42049511   1.79712419   2.64556399
H   -0.49989326   1.25926915   2.73558836
H   -2.22421995   1.19198182   3.00988279
H   -1.36443007   2.69864221   3.21916756
C   -1.66940280   2.14467459   1.16608649
N   -1.85472590   2.40344166   0.06454824
C    1.51311851  -1.84896626   2.21182005
H    1.91162425  -0.90659717   2.52492365
H    2.13526647  -2.63871395   2.57805713
H    0.52331769  -1.96481445   2.60140012
C    1.46871335  -1.90189227   0.67337050
N    1.43565170  -1.94129809  -0.47207512
