27
Energy:   -106.34738492
O   -0.22860814   0.03547518  -2.56452808
H   -0.74755646   0.57256294  -1.96581176
H    0.42883154  -0.37947786  -2.00612062
C    1.78255005   2.31830810  -1.31616115
H    2.11347117   1.42931599  -1.81122117
H    2.36067444   3.15206837  -1.65603628
H    0.74940224   2.48653964  -1.53797829
C    1.96116492   2.15567273   0.20477490
N    2.09415181   2.03458330   1.33718092
C   -1.87553184  -2.55151835  -1.01769633
H   -2.34223706  -1.80241206  -1.62261467
H   -2.52122409  -3.40127801  -0.94095577
H   -0.94981582  -2.84631186  -1.46607757
C   -1.60684961  -1.98236941   0.38782113
N   -1.40680348  -1.55861215   1.43429278
C   -2.12118936   1.71279423   2.00431575
H   -2.49513444   2.69755603   2.19222387
H   -1.20099924   1.57391505   2.53238942
H   -2.83632752   0.99007629   2.33771535
C   -1.87810911   1.53552883   0.49398831
N   -1.69712482   1.40354668  -0.63051912
C    2.22079052  -1.66855415   1.84702134
H    2.64227729  -0.76407514   2.23324254
H    2.92684280  -2.46534165   1.95434776
H    1.32937858  -1.90649591   2.38893236
C    1.88094342  -1.48109083   0.35673229
N    1.62791180  -1.34151587  -0.75285564
