27
Energy:   -105.04978327
O    0.29911611   0.53117627   2.64949368
H    0.37162115   1.13094332   1.90702863
H    0.25916216  -0.33877812   2.25223446
C    0.06791241   2.10955889  -2.58374549
H    0.77041445   1.48865932  -3.09937597
H    0.24745979   3.13447629  -2.83315710
H   -0.92618612   1.84067000  -2.87420368
C    0.22917967   1.91507390  -1.06461137
N    0.34925047   1.77027098   0.06645303
C   -3.19881856  -0.23368186   2.23381271
H   -2.62716773   0.61012590   2.55954877
H   -2.74475160  -1.13286298   2.59463899
H   -4.19516626  -0.15876012   2.61666658
C   -3.24108959  -0.26181696   0.69465009
N   -3.27256229  -0.28276481  -0.45132644
C   -0.48585981  -2.00208867  -1.74645256
H   -1.51114642  -1.76482053  -1.93982110
H   -0.29563188  -3.01702701  -2.02683191
H    0.14435844  -1.35081238  -2.31527874
C   -0.19104222  -1.82017559  -0.24592258
N    0.02846288  -1.68473303   0.87129020
C    3.42030614  -0.08311239   0.53628229
H    2.71922493  -0.54515994   1.19952988
H    3.45782156   0.96801701   0.73279862
H    4.38983942  -0.50930235   0.68881568
C    2.97994091  -0.31755536  -0.92067171
N    2.65206898  -0.49210881  -2.00544019
