27
Energy:   -105.02011655
O   -1.62859923   1.99842182  -1.04192033
H   -2.08611337   1.29580948  -0.58013191
H   -0.79581168   1.60843998  -1.30764748
C   -0.55677346   3.04825436   1.73747119
H   -0.68138758   3.64931258   2.61388463
H   -1.46189629   2.51259817   1.54068658
H   -0.32613597   3.67744205   0.90330795
C    0.59333449   2.04856264   1.95988560
N    1.44964214   1.30424672   2.12548323
C   -0.47310114  -1.76738585   1.88798473
H    0.48341615  -1.28785367   1.89285685
H   -0.41604310  -2.67125648   1.31819410
H   -0.76230809  -1.99655930   2.89234421
C   -1.51565198  -0.82681556   1.25551711
N   -2.29187847  -0.12651823   0.78461622
C    3.10712826  -0.36480281  -0.28730386
H    3.73673292  -0.84399183  -1.00763437
H    2.81673924  -1.07335703   0.46004093
H    3.64046707   0.44060326   0.17288073
C    1.85129987   0.18547785  -0.98850729
N    0.91627855   0.59518682  -1.51058511
C   -1.03468364  -1.96154528  -2.58633054
H   -0.59369890  -1.11314438  -3.06658937
H   -1.82804937  -1.63658623  -1.94611845
H   -1.42442072  -2.62810906  -3.32707127
C    0.03341355  -2.69095424  -1.75042924
N    0.82866046  -3.23403236  -1.12806273
