27
Energy:   -107.90158571
O    1.95316307  -1.66368075   0.68008917
H    1.59011489  -1.26628708   1.47161058
H    1.74933434  -1.03993589  -0.01678101
C   -0.13389017  -3.68159455  -0.80805275
H    0.09123935  -3.92554788   0.20915109
H    0.74002281  -3.28552474  -1.28166008
H   -0.45084386  -4.56343682  -1.32457347
C   -1.25951541  -2.63133304  -0.84702171
N   -2.09759457  -1.84936561  -0.87603588
C   -1.96566578   0.63548901   1.71676493
H   -2.07422315   0.34785733   0.69188275
H   -2.08296635   1.69544909   1.80408216
H   -2.71165429   0.14435051   2.30598747
C   -0.56693088   0.23078506   2.21811849
N    0.47449082  -0.07053544   2.59139901
C   -1.20139883   1.14268382  -2.65006011
H   -2.08352834   0.60500919  -2.37139598
H   -1.03725873   1.03788238  -3.70218833
H   -1.32390245   2.17808829  -2.40958238
C    0.00828501   0.57715966  -1.88295683
N    0.90894960   0.15610122  -1.31181356
C    2.07573963   2.66531366   1.03182171
H    2.82267474   3.18981305   0.47335191
H    2.22648851   1.61120437   0.92680992
H    2.14794144   2.93477417   2.06481591
C    0.67982664   3.03973499   0.49999882
N   -0.35949403   3.31850868   0.10403250
