27
Energy:   -106.63754538
O   -1.05870758  -0.46948709  -1.86728908
H   -0.89754483  -1.40879731  -1.77809978
H   -1.23853842  -0.17112867  -0.97573147
C    2.20614289  -0.48916527  -1.66905412
H    1.61777366   0.36923237  -1.91780164
H    1.80675148  -1.35049945  -2.16250017
H    3.21626226  -0.33312332  -1.98561195
C    2.17396297  -0.70952298  -0.14524083
N    2.15000356  -0.87358931   0.98930742
C    0.17290064   1.38482568   2.81040063
H    0.39248225   2.40323786   2.56643192
H    1.08478947   0.82862435   2.87362978
H   -0.33512577   1.34501892   3.75126389
C   -0.72439431   0.77687848   1.71638875
N   -1.39247118   0.32423415   0.90184718
C   -1.40219996   2.81970246  -1.89079567
H   -2.20266254   2.32255082  -1.38384391
H   -1.06899548   2.21631079  -2.70920409
H   -1.74545890   3.76347977  -2.26006085
C   -0.23565922   3.04532874  -0.91106330
N    0.63288338   3.21331775  -0.18160803
C   -0.34912598  -3.07837213   1.85449071
H   -0.66298450  -2.12112557   2.21514572
H    0.63759226  -3.28798170   2.21135207
H   -1.02322594  -3.83087019   2.20696058
C   -0.34734096  -3.07137580   0.31450764
N   -0.34601193  -3.06616672  -0.83207976
