27
Energy:   -106.02176775
O   -1.27156174   0.04851797   1.34985960
H   -1.27732699  -0.05407734   0.39819116
H   -1.08760394  -0.82911833   1.68474153
C    1.85952386   0.44258272   2.26996910
H    1.34749852  -0.17891186   2.97457871
H    1.22858529   1.26064440   1.99141802
H    2.75742244   0.81955306   2.71333192
C    2.21223537  -0.38288392   1.01865002
N    2.47484512  -0.99748135   0.08698609
C   -2.63221970   2.87658754   0.20580811
H   -3.15157498   3.80861114   0.12517143
H   -2.68787742   2.52335624   1.21428665
H   -3.08240567   2.15964402  -0.44857990
C   -1.15669690   3.07542237  -0.18776170
N   -0.05810311   3.22346393  -0.48079232
C    1.24034338   0.69709454  -2.65947451
H    1.39485601   1.69606886  -2.30865212
H    1.11801577   0.70727350  -3.72240980
H    2.08656549   0.09432262  -2.40359710
C   -0.02390850   0.11220813  -2.00283529
N   -0.96520149  -0.32326639  -1.51393754
C    0.27894892  -3.64414983  -0.73552616
H   -0.34185195  -3.19315040  -1.48125130
H    0.12766743  -4.70339699  -0.73843615
H    1.30537965  -3.42987190  -0.94865527
C   -0.08712326  -3.07712682   0.64869783
N   -0.35968063  -2.65495242   1.67931552
