27
Energy:   -106.34265680
O   -0.29406015   1.78690156  -0.97067769
H   -0.68371582   1.15681417  -0.36455050
H   -0.45197219   1.41456464  -1.83823798
C   -0.09017161   3.27135157   1.94112054
H   -0.08895242   3.59808520   0.92222711
H    0.15053913   4.09513581   2.58013303
H   -1.05946492   2.89522670   2.19390434
C    0.95668981   2.15680254   2.12404576
N    1.73612573   1.32697013   2.26024190
C   -2.03528672  -2.21802332  -1.93649481
H   -1.41537280  -2.60386880  -1.15436299
H   -2.20961970  -2.98325525  -2.66376861
H   -2.96961639  -1.89702653  -1.52553468
C   -1.33185265  -1.02332559  -2.60692590
N   -0.80811401  -0.13381883  -3.10609232
C   -0.17680958  -1.91719718   2.47601495
H   -0.89328622  -2.32758592   3.15656067
H    0.57936415  -1.39636720   3.02541146
H    0.27270711  -2.70751948   1.91190104
C   -0.88091295  -0.93867493   1.51771820
N   -1.40514992  -0.21012065   0.80422272
C    2.49452436  -0.05939188  -1.42927294
H    3.53660622  -0.26620453  -1.55652900
H    2.36808536   0.67831447  -0.66461510
H    2.08871444   0.30707239  -2.34901276
C    1.76074473  -1.35091885  -1.02291650
N    1.21441245  -2.31251938  -0.72036566
