27
Energy:   -106.55924842
O    1.01215035  -1.70925375   0.31071362
H    1.84937706  -1.28280102   0.49352869
H    0.36272140  -1.16250289   0.75290971
C    1.86650495   2.21478598   2.40766633
H    1.05226249   1.82095624   2.97933716
H    1.49524003   2.93085369   1.70459558
H    2.56647296   2.68878788   3.06361303
C    2.56531992   1.06879374   1.65270977
N    3.08561943   0.21555042   1.09061029
C   -2.68501998   1.71604834   0.14775679
H   -2.18646782   2.61272838  -0.15607019
H   -3.47623289   1.96000422   0.82552279
H   -3.09056554   1.22465048  -0.71187106
C   -1.68012305   0.78162921   0.84678685
N   -0.93193160   0.08591169   1.36724652
C    1.46541676   0.31384016  -2.24892552
H    0.83364336  -0.52158031  -2.03021297
H    2.47016104   0.08659850  -1.95953091
H    1.43438311   0.51933514  -3.29854822
C    0.97328186   1.54752232  -1.46954654
N    0.60686506   2.46605476  -0.88926347
C   -1.57238676  -3.41349694  -0.62242051
H   -0.56012233  -3.57182143  -0.93089135
H   -2.15389320  -4.28312209  -0.84714578
H   -1.59944700  -3.22882030   0.43117399
C   -2.15341077  -2.19981203  -1.37140652
N   -2.58600955  -1.29616845  -1.92906065
