27
Energy:   -106.79914490
O    0.74045762  -0.86509701  -1.66293988
H    0.34992828  -0.05090210  -1.34544134
H    1.66140478  -0.80447138  -1.40914329
C    2.94788015   2.14935757   0.86374900
H    2.36021571   2.79619915   0.24637823
H    3.91497635   2.58172540   1.01435473
H    2.46327110   2.02135728   1.80908972
C    3.09925709   0.78032508   0.17495653
N    3.21196410  -0.23898184  -0.33788077
C    0.45561613  -2.09816129   1.35826940
H    1.34220766  -2.25067577   0.77896380
H   -0.38238337  -1.98020134   0.70348594
H    0.29518484  -2.94365772   1.99411268
C    0.61658134  -0.83154352   2.21929764
N    0.73642725   0.11151098   2.86037230
C   -2.19969821  -1.42837840  -2.97066401
H   -3.01868243  -1.26140552  -3.63870973
H   -1.82361034  -2.42058403  -3.10844998
H   -1.42314747  -0.72107943  -3.17461549
C   -2.67991200  -1.25864161  -1.51732848
N   -3.03745298  -1.13226485  -0.43525412
C   -2.07810246   1.84988110   1.58871238
H   -2.91031894   1.18441859   1.49136992
H   -2.42443771   2.86166197   1.55335052
H   -1.58758542   1.67325419   2.52310794
C   -1.08784510   1.60565185   0.43487426
N   -0.35055347   1.42381207  -0.42421067
