27
Energy:   -106.26677216
O    1.45297590   0.46986873  -1.54192402
H    0.81034783   0.21416294  -2.20364569
H    1.35999250  -0.18604815  -0.85101232
C    3.27019258   2.15748421   0.78061416
H    4.01685371   2.77931118   1.22864157
H    2.82148202   2.67487591  -0.04149518
H    3.72259038   1.25376410   0.42915251
C    2.19024992   1.81854173   1.82485640
N    1.38618353   1.56618365   2.60234221
C   -0.59013980  -1.13315438   2.68772228
H    0.08951111  -1.04416375   3.50933989
H   -1.25063647  -1.95738143   2.85887430
H   -1.16014884  -0.23216192   2.59716087
C    0.20268075  -1.37171958   1.38921459
N    0.79297169  -1.54934223   0.42241659
C   -1.58916638   1.95238790  -0.59762094
H   -2.11023790   2.83901289  -0.30218771
H   -1.53363335   1.91036989  -1.66535202
H   -0.60023260   1.96710853  -0.18934116
C   -2.34246569   0.71559633  -0.07370609
N   -2.90333127  -0.20525121   0.31637232
C   -1.74553673  -2.93267402  -1.70329491
H   -2.20588233  -3.57068337  -2.42850259
H   -2.46510781  -2.66070320  -0.95955542
H   -0.93115740  -3.44912354  -1.23965142
C   -1.21943528  -1.66254866  -2.39726813
N   -0.82772883  -0.71688259  -2.91396273
