28
Energy:   -903.98982479
O    0.24897761  -2.57263728  -0.93127469
H    0.39586222  -2.13635468  -0.09204037
H   -0.09277780  -1.88494136  -1.50268472
O   -2.24229083  -1.76910111   0.12931597
H   -1.50820698  -2.33934005  -0.09911411
H   -1.84014309  -1.03382074   0.59177875
O    2.58608874  -1.05452027  -1.22114522
H    2.03475452  -0.40054117  -0.79152473
H    2.04660887  -1.84484902  -1.24509888
O    3.10228512  -1.35887709   1.46402496
H    2.18193476  -1.16225940   1.63874916
H    3.19599439  -1.24781335   0.51791964
O   -2.18856729   1.89478591  -0.67018006
H   -1.86971456   1.35456509  -1.39317815
H   -1.85203065   1.46576076   0.11652977
O   -0.69121216   2.65816004   2.35625599
H   -0.78244245   1.72808624   2.14920138
H   -0.22760382   3.02704187   1.60444128
O    0.29916652   2.97156346  -0.21653576
H    0.60119179   2.07989149  -0.04352220
H   -0.63072208   2.87440528  -0.42171696
O   -1.02819131  -0.32512786  -1.85723713
H   -0.36958580   0.00262596  -1.24482545
H   -1.68699807  -0.74110843  -1.30121046
C    0.23606890   0.05932659   1.08414674
O    0.42301341  -1.27928811   1.30802356
O   -1.10386645   0.34385259   1.11092338
O    0.74993516   0.39311700  -0.14153904
