28
Energy:   -897.55200743
O   -0.46798667   2.31572371   1.75167503
H   -1.35725568   2.33302559   1.39793344
H    0.00065633   1.69598425   1.19263247
O    2.19386380   1.16627161  -1.66824941
H    1.59891711   1.12686729  -2.41706019
H    1.63481862   1.00265028  -0.90869139
O   -1.49779831  -0.09583106   2.58479039
H   -1.40382966  -0.41945111   1.68887086
H   -1.03195135   0.74035558   2.58800943
O    1.10650457  -1.19103452   2.20937158
H    0.24305223  -1.14579444   2.62002378
H    1.03416744  -0.63135613   1.43622264
O    0.37724140  -2.77448012   0.00270854
H    0.88813297  -2.52135247   0.77157007
H   -0.23473105  -2.05014252  -0.12789243
O    0.22593772   0.27057401  -3.40984951
H   -0.26367106   0.53039051  -2.62945828
H    0.69120807  -0.52384090  -3.14781839
O   -2.89878492   1.54175282   0.74332488
H   -2.28202712   1.30305790   0.05132314
H   -2.74628711   0.89654983   1.43375182
O    1.94147787  -1.58021286  -2.05265027
H    2.08398719  -0.67537386  -1.77482060
H    1.33705388  -1.93848491  -1.40261594
C   -0.34209286   0.04434140  -0.54016115
O   -0.99556415   1.12395763  -1.07341760
O   -1.23263144  -0.73034065   0.15547349
O    0.64354780   0.47997714   0.30631046
