28
Energy:   -897.09594897
O   -1.18228094  -2.07211211  -1.30604946
H   -1.51166027  -2.38971822  -0.46529536
H   -0.55051893  -1.39128162  -1.07457925
O   -2.23458449  -2.13183491   1.23568435
H   -1.35236321  -1.77972020   1.35372121
H   -2.72046140  -1.42463171   0.81139776
O    2.71811812  -1.53976426  -0.64994728
H    1.81357617  -1.22826759  -0.68165732
H    3.03599659  -1.26654608   0.21059729
O    2.94337254  -0.26162698   1.79517957
H    2.93178339   0.54474024   1.27955427
H    2.04874923  -0.59693135   1.73642611
O   -2.88399296  -0.05910062  -0.59669221
H   -2.22263347   0.22620796   0.03373184
H   -2.44752189  -0.73751700  -1.11193592
O   -0.24280617   2.92166368   0.46045676
H   -0.37398847   2.05232032   0.83896064
H   -0.44135142   2.81102804  -0.46936655
O    2.28624400   1.82004597  -0.09920564
H    1.61623125   2.41746047   0.23307537
H    1.81364662   1.00851665  -0.28441830
O   -1.00362982   1.58653056  -1.87719869
H   -1.85886096   1.29125577  -1.56474974
H   -0.37476541   1.03303099  -1.41416561
C    0.23332455  -0.07712056   0.75478678
O    0.29817571  -1.33284156   1.29876975
O   -1.00354997   0.46102375   0.99487200
O    0.44389106  -0.15403150  -0.59707367
