28
Energy:   -896.11764300
O    1.43532454   0.63094455   3.06613588
H    1.59374454   0.58207011   2.12340249
H    0.50622856   0.42275529   3.16447069
O    2.11674786   0.31849762  -2.68410344
H    1.58335802  -0.16417197  -2.05263120
H    2.03171029   1.23448044  -2.41957381
O    1.11179489   2.51333018  -1.29111391
H    0.28522582   2.20781556  -1.66484675
H    1.37237483   1.81938564  -0.68549777
O   -0.32176626  -3.08046037  -0.80640195
H   -0.04946093  -2.17781585  -0.97167305
H   -0.25110570  -3.18248819   0.14271830
O   -2.39740560  -1.58489068   0.28387069
H   -1.77254864  -0.89404201   0.50412907
H   -1.93762464  -2.12958022  -0.35499285
O   -0.48122483  -2.63036514   1.94673670
H   -1.35816707  -2.44259486   1.61215266
H    0.04213744  -1.87213449   1.68710225
O   -0.76712126   2.54749671   0.77322060
H   -0.63730425   1.61203471   0.92907386
H   -0.03564410   2.80076211   0.21016674
O   -1.32835167   1.35473355  -1.64191114
H   -0.78421000   0.59233276  -1.44471396
H   -1.44319446   1.79226521  -0.79834192
C    0.63828063  -0.38036084   0.28772884
O    1.60113448   0.59044639   0.37377631
O    0.29204390  -0.56478350  -1.02498102
O   -0.46539813   0.00704995   1.00158197
