28
Energy:   -896.39320787
O    2.84079316   0.08089376  -0.95189395
H    2.81070621   0.34796993  -0.03320089
H    2.08157630  -0.49188166  -1.06029099
O    1.78166660   1.04473660   1.44316579
H    1.46569082   0.16087764   1.25559048
H    1.38248641   1.59103583   0.76608073
O   -2.53030511  -1.84730561   1.29209729
H   -1.88599312  -1.99803832   1.98374283
H   -2.03840794  -1.41013077   0.59700939
O    0.68687853   1.78823093  -0.96200075
H    0.07743642   1.10798606  -0.67550626
H    1.49361172   1.31621743  -1.16843875
O    0.06305871   0.63028453  -3.41617202
H    0.18169898  -0.16558251  -2.89775907
H    0.15499153   1.34386459  -2.78483717
O   -0.33137329  -1.67236846   2.92643611
H    0.10431694  -1.71749318   2.07533703
H   -0.65825779  -0.77439407   2.98139391
O   -2.37350279   0.27069046  -2.23689836
H   -1.65521986   0.39742623  -2.85676893
H   -1.94408427   0.01085165  -1.42184292
O   -0.83047659   0.95574209   2.28303508
H   -1.01912425   0.50134328   1.46195918
H    0.11840446   1.08142376   2.27524282
C   -0.06966664  -1.20140702  -0.28624531
O    0.52977169  -1.11917295  -1.51541968
O   -0.89786379  -0.12442828  -0.10931290
O    0.89120958  -1.20461920   0.69073307
