28
Energy:   -899.96254775
O   -0.33035798   1.34177472   2.06349809
H   -0.01489109   1.12623261   1.18585688
H   -0.52736740   0.49432320   2.46255329
O    2.07997929   0.09635691   2.49271776
H    1.41601199   0.78471596   2.45346106
H    1.95547863  -0.40345811   1.68592388
O    2.84641728  -1.49417147  -1.86435613
H    2.38053501  -0.85821072  -2.40725528
H    2.35341330  -1.51638314  -1.04418203
O   -2.70649907   0.58995030   0.86785783
H   -2.15188386  -0.11602090   0.53583601
H   -2.11169322   1.14589293   1.37121222
O   -1.52956773   1.80113594  -1.24981009
H   -0.69080249   1.40458153  -1.01433331
H   -2.14811230   1.45367959  -0.60723048
O   -0.33457795  -1.28749904   2.78123835
H    0.58970368  -1.05325521   2.86529268
H   -0.48950091  -1.31810385   1.83715463
O   -1.51377740  -0.63614091  -2.49979338
H   -1.09604332  -0.99254257  -1.71576025
H   -1.65414319   0.28885347  -2.29751960
O    1.11337245   0.45062557  -2.87319862
H    1.12259783   0.50695814  -1.91770221
H    0.30565632  -0.02039921  -3.07804527
C    0.39663942  -0.74463321  -0.29082014
O    1.37227648  -1.35817904   0.44989048
O    0.57693594   0.61285385  -0.24814901
O   -0.83337806  -1.05891810   0.22499204
