28
Energy:   -895.69795222
O    0.48480274   1.43401265   1.74345244
H   -0.32412465   1.09992251   2.13107610
H    0.70676109   0.79664281   1.06468442
O   -1.45837942   1.58341318  -0.22508034
H   -0.70196577   1.83869123   0.30303267
H   -1.36856529   0.63632907  -0.33089595
O    1.55614739  -0.66573321   3.22047918
H    1.45298707   0.23363919   2.90948226
H    1.00572195  -1.18652158   2.63563463
O    3.09890201  -1.09230321   0.99597009
H    2.77495998  -1.03678837   1.89497594
H    2.32466392  -0.94614899   0.45243888
O    1.01650000  -0.69985842  -2.68986328
H    1.01485226  -0.63100793  -1.73514409
H    0.15899996  -1.06649222  -2.90551390
O   -0.50240003   1.55459126  -2.78089592
H    0.17096281   0.87687391  -2.72162093
H   -0.85160876   1.62429173  -1.89239889
O   -1.72277408  -0.94521589  -2.93880100
H   -1.50469098  -0.02036214  -3.05420096
H   -1.57764782  -1.11160226  -2.00741182
O   -1.96350754   0.24922646   2.15292881
H   -1.43173742  -0.48180283   1.83820899
H   -2.13686430   0.77386049   1.37130332
C   -0.03238678  -1.29597157   0.08095107
O   -0.14139445  -1.54212118   1.42426268
O    0.86562190  -0.28213033  -0.12594294
O   -1.25595871  -0.93164699  -0.41696413
