28
Energy:   -895.51907570
O    2.05476117  -0.48287158  -2.16883792
H    1.58832573  -0.80961856  -1.39948349
H    1.58093784   0.31074270  -2.41763441
O   -2.49048215  -1.43972865   0.78198240
H   -1.63836606  -1.21750092   1.15714218
H   -2.36154288  -1.37086296  -0.16399013
O    3.02749961   1.24289153  -0.26397776
H    2.19514961   1.16278877   0.20186435
H    2.96679058   0.60518248  -0.97522556
O    0.61786950  -3.27109521   1.14431186
H    0.40532287  -2.91810991   2.00828938
H    0.57642317  -2.51468631   0.55919680
O   -2.22182466   1.27179196   0.42154625
H   -2.50382531   0.41759191   0.74873085
H   -1.26593317   1.23991592   0.46011086
O    0.39596099   2.03396458   2.83648978
H    0.09516316   1.23698461   3.27303925
H    0.47603783   1.78727734   1.91509684
O    0.20652332   1.53845473  -2.20257390
H    0.43034409   1.46584111  -1.27474667
H   -0.47219502   0.87725509  -2.33817738
O   -1.68701756  -0.38118462  -1.66547839
H   -0.89563414  -0.68756755  -1.22267637
H   -1.99618153   0.34762331  -1.12743704
C    0.59770626  -0.24357668   0.75741731
O   -0.24825049  -0.54479487   1.79210719
O    0.39632561   1.05388295   0.36608223
O    0.34692672  -1.08307742  -0.29620896
