28
Energy:   -897.94248738
O   -2.67667050  -2.11254393   0.56062830
H   -2.98820580  -1.23938630   0.32235671
H   -1.72605790  -2.06403970   0.45955964
O    0.98402707  -0.30836526   3.26973208
H    0.61467448  -0.68185027   2.46953244
H    0.86336224   0.63612187   3.17167135
O   -0.31539607   1.80703869  -1.51081503
H   -1.15333868   1.66428113  -1.07069651
H    0.28852016   1.20290199  -1.07891703
O   -1.03311544  -0.56980738  -2.61117748
H   -0.71107896   0.32156902  -2.47711603
H   -0.73643006  -1.05088710  -1.83866733
O   -2.57258474   0.45171488  -0.54229643
H   -1.85057250   0.30246466   0.06815795
H   -2.30130883   0.01057550  -1.34730405
O    0.75022514   2.08370532   1.94077875
H    0.19606579   1.43007796   1.51426903
H    1.63997376   1.85772591   1.66964676
O    1.71449126  -1.06042121  -2.75501008
H    1.67488527  -0.79913903  -1.83501289
H    0.80112742  -1.07039443  -3.04118988
O    2.96659880   0.47480555   1.45631446
H    2.40365315   0.29332275   0.70372691
H    2.50852678   0.08143353   2.19905286
C    0.39849696  -0.73987734   0.35926843
O   -0.21411588  -1.68946455  -0.41529470
O   -0.55179101   0.05859472   0.93934940
O    1.22271735   0.02532098  -0.42361885
