28
Energy:   -896.38019016
O   -1.57616739  -0.33712610  -2.48718159
H   -0.79624574  -0.04634158  -2.01453116
H   -1.90857875  -1.07241597  -1.97231913
O   -1.77574979   1.70949345   1.45267774
H   -0.99760036   1.15250080   1.43089434
H   -1.89468077   1.99123494   0.54564467
O   -2.11201170  -1.05239084   1.85854049
H   -2.41209988  -0.14429006   1.81940102
H   -1.20080840  -1.01678182   1.56755530
O    2.57460112   1.30232066   1.31524149
H    2.84676614   1.24726199   0.39920295
H    1.68998467   0.93682459   1.32515137
O   -1.91895920  -2.41169448  -0.59772230
H   -2.26316410  -2.02249993   0.20619464
H   -1.01118641  -2.11108639  -0.64032737
O    3.02348108   0.30759288  -1.22071187
H    3.16923602  -0.43435897  -0.63377508
H    2.07948521   0.46150646  -1.18310515
O    2.89699740  -1.39991832   0.94001086
H    2.02645056  -1.47324579   0.54885470
H    2.91142315  -0.52653535   1.33145169
O   -1.59746660   2.19772714  -1.25551353
H   -0.76467206   1.83038373  -0.95929752
H   -2.00061716   1.49643484  -1.76726601
C    0.02051150  -0.23619303  -0.04350646
O    0.59831158  -1.44034965  -0.34864947
O    0.51495023   0.73176267  -0.87758733
O    0.30621633   0.09070155   1.25622154
