28
Energy:   -898.44681616
O   -2.66736486   1.41723071   0.69734913
H   -2.83916241   0.90863411  -0.09514501
H   -1.74280151   1.25917344   0.88822174
O    0.55300107  -1.17128068  -2.28928711
H    0.88337446  -1.11646360  -1.39258183
H   -0.39468821  -1.06831208  -2.20260186
O    1.49986093  -3.30094062   0.76859551
H    0.56245602  -3.46734647   0.86765600
H    1.56039546  -2.36013951   0.60288285
O    1.81501721   2.07761671   1.81363600
H    1.06393646   1.51360303   1.62925023
H    2.43436160   1.89078300   1.10813083
O    0.33784971   1.48216864  -1.66609742
H    0.61513743   0.65621050  -2.06250191
H    0.20687349   1.27251101  -0.74137002
O    2.90804818   1.21145064  -0.55413395
H    2.21540142   1.68046394  -1.01942830
H    2.47164450   0.44389285  -0.18448720
O   -1.90960331  -0.14513044  -1.51075006
H   -1.34065876   0.61072835  -1.65639150
H   -1.53604231  -0.58284203  -0.74583660
O   -2.63181932  -0.83341309   2.27447222
H   -2.83288351   0.02608651   1.90424866
H   -1.81611909  -1.09408463   1.84678621
C    0.25034422  -0.54293052   0.88644194
O   -0.73210246  -1.40115121   0.46785605
O   -0.17947277   0.74961254   0.73917148
O    1.37827089  -0.73830141   0.13318776
