28
Energy:   -895.70167590
O    2.35504979   0.17609426   1.64690779
H    1.73407459   0.75214594   2.09276216
H    1.84766465  -0.22231116   0.93975484
O    0.60482952   2.80474204   1.30919349
H    1.35279636   2.75196801   0.71422092
H    0.13946985   1.97775790   1.18361700
O    0.68235842  -2.29422015  -2.45612438
H   -0.25070403  -2.47102525  -2.33626503
H    0.88957705  -1.63769133  -1.79109641
O   -1.25925652   2.93455570  -0.82796152
H   -0.71164326   3.12054743  -0.06523048
H   -1.17910254   1.98937779  -0.95620313
O    2.60015603   1.94867873  -0.41950520
H    1.83513111   1.56926729  -0.85195828
H    2.76898959   1.36799588   0.32247492
O   -1.81675191  -2.23756940  -1.21738993
H   -1.49151481  -1.34398345  -1.32673720
H   -1.30699367  -2.59096604  -0.48835687
O   -2.62082953  -0.85161949   1.06626717
H   -1.86417561  -0.26858822   1.00477539
H   -2.64358517  -1.30497132   0.22354175
O   -0.41213807  -2.50009224   1.10252653
H   -1.16791646  -1.99061905   1.39487552
H    0.12766693  -1.87360421   0.62049420
C    0.10892518   0.33177520  -0.36046543
O   -0.87951137   0.17241876  -1.29564300
O    0.90427294  -0.78365809  -0.34231887
O   -0.45630565   0.51041401   0.87500310
