28
Energy:   -898.30211309
O   -0.10838073   0.61808814  -3.11709378
H    0.66075763   0.60100461  -2.54756224
H   -0.82127996   0.29267925  -2.56744334
O    1.47055551   0.74117629  -0.85085348
H    0.83455746   0.04173815  -0.70077149
H    0.96719301   1.54902461  -0.74966481
O   -0.63229396   2.54663598  -1.19307197
H   -0.56519046   2.09636542  -2.03508467
H   -0.93559429   1.87313770  -0.58426918
O    0.01199845  -2.15986238  -2.88119387
H   -0.18630489  -1.96734081  -1.96476434
H   -0.02305901  -1.30896315  -3.31819881
O   -1.72980986  -0.40220298   2.85611913
H   -1.04869056   0.22806430   3.09079234
H   -1.79528567  -0.34107875   1.90311934
O    0.35403288   1.37076677   2.46329634
H    1.12928459   0.83537955   2.29424855
H   -0.22571740   1.19428871   1.72236654
O    2.27117868  -0.34695320   1.56957182
H    1.59230455  -1.00992173   1.69540701
H    2.06195905   0.05362375   0.72577261
O    0.18732367  -2.10413056   1.89522654
H   -0.47069775  -1.62990208   2.40350501
H    0.02739143  -1.83951456   0.98933918
C   -1.34882506  -0.50499673  -0.24873647
O   -1.91403043  -0.17365200  -1.45194548
O   -1.10387133   0.63540599   0.46999721
O   -0.17079022  -1.17049832  -0.46581195
