28
Energy:   -896.43808410
O    0.43158286  -2.66413556  -1.03444176
H    0.54191512  -2.15800372  -0.22952612
H   -0.09121912  -2.09917778  -1.60341685
O   -2.11459440  -2.39176709   0.12936298
H   -1.28728315  -2.78098049  -0.15401112
H   -1.86822053  -1.53944181   0.48863083
O    2.34894403  -0.71678212  -1.63051360
H    1.72212443  -0.14638697  -1.18556596
H    1.96523125  -1.59134558  -1.56620870
O    3.14792240  -0.80595430   0.99942284
H    2.22186292  -0.80492116   1.24158936
H    3.14710132  -0.70771389   0.04727789
O   -0.99773981   2.67793406  -0.65675804
H   -0.51334589   1.85236552  -0.66232110
H   -1.61521539   2.58899617   0.06922118
O   -1.92182556   2.22761779   1.93529964
H   -1.80285952   1.34954367   1.57327095
H   -1.03408883   2.57659008   2.01513514
O    0.74700996   2.87176108   1.43193013
H    0.83188734   1.91833519   1.42932988
H    0.27767313   3.07312414   0.62235758
O   -1.28621009  -0.80930449  -1.99671575
H   -0.72925469  -0.27891993  -1.42686949
H   -1.87820714  -1.26429073  -1.39775092
C   -0.02189297   0.05960468   0.80369705
O    0.51550133  -1.16895115   1.08443953
O   -1.38916554  -0.02755225   0.81195287
O    0.40251301   0.47164044  -0.43237993
