28
Energy:   -896.58504808
O    2.11181920  -1.96350936  -1.47487292
H    1.32807063  -1.88943613  -0.93037022
H    2.41653159  -1.06230394  -1.58075495
O   -2.41002209  -1.99302642   0.48620676
H   -1.47012202  -1.84491945   0.59053337
H   -2.80316332  -1.12738881   0.59730736
O    2.88612898   0.61083267  -0.87252564
H    1.93477291   0.64803260  -0.77368410
H    3.18616748   0.10401948  -0.11797337
O    3.06786415  -1.41473325   1.05202949
H    2.92808172  -1.85060141   0.21136805
H    2.20848926  -1.06444573   1.28656158
O   -2.81867831   0.76410612   0.20920110
H   -2.57826738   0.45258353  -0.66337446
H   -2.04263941   0.59981795   0.74492945
O   -0.12149704   2.55653590   2.15815358
H   -0.29326951   2.91818559   1.28870803
H   -0.17889747   1.60847296   2.03935246
O   -0.94730593   2.71283901  -0.47235241
H   -0.35147004   1.96371031  -0.47655141
H   -1.78249351   2.35352056  -0.17304687
O   -1.65763930  -0.65915272  -1.81372997
H   -0.88938349  -0.27124698  -1.39475026
H   -1.94083779  -1.34436649  -1.20832717
C    0.34169997  -0.26852226   0.63679210
O    0.21268302  -1.60156237   0.34814515
O   -0.69332456   0.12620585   1.44302577
O    0.31640977   0.45484453  -0.52677186
