28
Energy:   -900.02627532
O   -1.61196690   2.77435641   0.22988061
H   -1.33461062   2.51802213   1.10942486
H   -1.34865078   2.04223518  -0.32769896
O   -0.52770749   1.32617138   2.30176214
H   -1.12751601   0.59629421   2.14768128
H    0.10365305   1.27352889   1.58423550
O    1.26683194  -1.68148523   1.19850462
H    0.90530144  -2.22446708   0.49800604
H    1.20536680  -0.78656715   0.86447541
O   -0.39321692  -2.61733706  -0.82861450
H   -0.99348468  -2.24581447  -0.18217701
H    0.06927577  -1.86086070  -1.18927483
O    1.09047004   3.35053508   0.05320975
H    0.13734140   3.43226293   0.02007059
H    1.25421736   2.41198334  -0.03919853
O   -1.41843181  -1.06041882   1.20644753
H   -1.30129570  -0.46420517   0.46682584
H   -0.52819149  -1.27322000   1.48648268
O    3.31105100  -1.06715396  -0.62737900
H    2.58882706  -0.60492361  -1.05278181
H    2.94775565  -1.36384755   0.20701973
O   -2.03684747  -1.14888266  -2.56447018
H   -1.63345356  -0.42076943  -2.09186430
H   -1.57935541  -1.92606834  -2.24366606
C    0.38539701   0.58980236  -0.95861406
O    0.87470690  -0.50473125  -1.62158496
O    0.98308155   0.68378768   0.27062910
O   -0.96934698   0.45893792  -0.79948068
