28
Energy:   -897.01643303
O    2.39292979   1.56177112   0.79965848
H    2.28237654   1.75813242  -0.13063828
H    1.90168924   0.75127956   0.93388965
O    1.50529866   1.19989181  -1.82863622
H    0.76532041   1.03751723  -1.24357336
H    1.89922883   0.33780869  -1.96229088
O   -0.16634599   2.66716393   1.18745568
H    0.76864213   2.49570530   1.29984337
H   -0.48892908   1.91875829   0.68539890
O   -1.80750581   0.91851935   2.80088025
H   -1.29287060   1.65609168   2.47320740
H   -1.48115755   0.16253375   2.31280808
O   -3.02252628   0.97601019   0.31416376
H   -2.20790175   0.62458257  -0.04516527
H   -2.88083653   0.99028836   1.26071116
O    0.09740438  -3.31846848  -0.20592682
H    0.86412160  -2.98220204  -0.66993267
H   -0.19882001  -2.58411555   0.33185448
O    1.73772751  -1.59744558  -1.76264137
H    1.62378088  -1.26200857  -0.87341135
H    0.86420407  -1.54931181  -2.15106354
O   -0.98007303  -1.54529755  -2.01311742
H   -0.85539328  -2.31482194  -1.45767252
H   -0.85097983  -0.80128264  -1.42489246
C   -0.08121924  -0.22241443   0.75668574
O   -0.95695867  -1.23238279   1.05669029
O   -0.50631408   0.43064142  -0.37021764
O    1.16475594  -0.74894839   0.53739591
