28
Energy:   -896.52547829
O    1.54687008   0.28611596  -1.37497554
H    1.12166909   0.17256014  -0.52495140
H    0.84569390   0.57955201  -1.95676511
O    1.84320415   1.99399803   1.77311838
H    1.73704952   2.57132018   1.01703493
H    1.21816186   1.28473356   1.62312541
O    0.01598479  -1.94029382  -1.91428853
H   -0.63660636  -1.41425959  -1.45207146
H    0.81953579  -1.42239187  -1.86617182
O   -2.18119340  -2.24798981   0.88291621
H   -1.29467233  -2.60575265   0.93106168
H   -2.06880956  -1.37938691   0.49674174
O   -1.14037273  -0.97240937   3.13256624
H   -1.69996816  -1.49542794   2.55851364
H   -0.69165484  -0.36628616   2.54307598
O    1.11833172   2.91495133  -0.73992115
H    0.33902394   2.62675711  -0.26467877
H    1.57219538   2.10437431  -0.97058217
O    0.53273574  -2.55502361   0.66909001
H    0.36492154  -2.55484878  -0.27328476
H    0.43421012  -1.63951607   0.93056753
O   -0.63262097   1.49511442  -2.48393071
H   -0.98555729   0.95662363  -1.77562606
H   -0.21194050   2.23096328  -2.03919906
C   -0.94773592   0.47356238   0.56210262
O   -0.92479986   1.82659824   0.34826560
O    0.30146656   0.04844352   0.93070254
O   -1.32618921  -0.16417641  -0.59021789
