28
Energy:   -898.28722415
O   -0.33689241  -2.03191841   2.95479573
H   -0.02704167  -1.25511947   2.48916952
H   -0.37455064  -2.71432964   2.28462515
O    0.42539253  -2.00201596  -2.02868904
H    0.81661714  -1.25623789  -1.57372725
H    0.26044700  -2.64450340  -1.33859144
O   -0.30181854  -3.14062164   0.39424876
H    0.48152399  -2.61191679   0.54616160
H   -0.99158430  -2.50162486   0.21497754
O    0.09728548   2.46845015   1.39726345
H    0.80523589   2.71359943   0.80149512
H    0.13521091   1.51273260   1.43464645
O    2.08741906   2.59317827  -0.47868936
H    1.42963063   2.70276257  -1.16537525
H    2.02927579   1.66910000  -0.23593318
O   -2.04548597   1.87456132  -0.21268470
H   -1.34307898   2.11514762   0.39144650
H   -1.95334463   0.92823745  -0.32319698
O   -1.58115487  -0.84622384  -0.46755922
H   -0.91762495  -0.56620439   0.16295565
H   -1.08496870  -1.06840828  -1.25538230
O   -0.06429159   1.93122112  -2.08258786
H   -0.84413789   2.03928747  -1.53816776
H    0.41965778   1.21618322  -1.66937405
C    1.31538411  -0.24668495   0.58777151
O    1.71616153  -1.55462178   0.66285212
O    0.13289316  -0.09217048   1.26226333
O    1.14147286   0.10258986  -0.72582743
