28
Energy:   -896.58451462
O    2.74185941  -0.39981646   2.21622515
H    2.07568481  -0.84136593   1.68946399
H    2.84488777   0.45757923   1.80332127
O    0.83438682   1.45688423  -2.75088036
H    0.02762527   1.87218528  -2.44609734
H    0.90536445   0.65809400  -2.22826369
O   -1.61171001   1.77771034  -1.50621193
H   -1.04256700   1.46795710  -0.80168299
H   -1.88937419   0.98097223  -1.95825488
O    0.44174169   1.03869713   2.82093227
H    1.16308248   0.41641336   2.91400331
H    0.07302757   0.85133082   1.95769672
O   -0.87805398  -3.08569972  -0.46662018
H   -1.25376331  -2.60864734  -1.20654949
H   -0.20442985  -2.50019730  -0.12071658
O    2.23168853   2.07255131   1.02257141
H    1.85916913   1.54096889   0.31909343
H    1.60218180   1.99685254   1.73966473
O   -1.98238070  -0.95661163  -1.94987009
H   -1.04339048  -0.82239295  -1.82136109
H   -2.35671675  -0.89037429  -1.07139586
O   -2.27443700  -1.04951044   0.75900491
H   -1.54131812  -0.44041019   0.67088310
H   -1.89627744  -1.90880845   0.57236589
C    0.71116526  -0.27923791  -0.05348772
O    0.72813376  -1.37160281   0.77319805
O   -0.27136227   0.58509255   0.35230938
O    0.46210820  -0.68358418  -1.33888839
