28
Energy:   -895.51142710
O   -3.11868807  -0.76366037  -0.31576009
H   -2.89159373  -0.49014232  -1.20449396
H   -2.45279391  -0.35633432   0.23822755
O   -1.57840994   0.31663510  -2.33931220
H   -1.38566515   0.58946724  -1.44229274
H   -0.90651148  -0.33436056  -2.54176951
O    1.21396952  -1.30724843   3.32075411
H    0.96179448  -1.20381169   2.40318099
H    0.87728930  -0.52190606   3.75216534
O    0.46253246  -1.48988397  -2.40996733
H    0.93798112  -0.78117525  -1.97647873
H   -0.02950040  -1.91396208  -1.70690740
O    1.68893773   0.52234793  -0.98398177
H    1.24897122   1.36985512  -1.05026064
H    1.21319364   0.05819423  -0.29517065
O   -0.99862033  -2.49954369  -0.33190757
H   -0.44729714  -1.90012363   0.17105384
H   -1.85006940  -2.06424341  -0.37409740
O    2.34586613   1.68701647   1.44144341
H    2.45080905   1.21030858   0.61805504
H    1.50518065   1.38692666   1.78702390
O    0.46994012   2.89421488  -0.15340539
H   -0.15647330   2.19091771   0.01750732
H    1.17704792   2.74347919   0.47389770
C   -0.54114705   0.10269543   1.22497115
O   -0.07429079   0.98993207   2.15868135
O    0.46917486  -0.74628965   0.85676909
O   -0.98515387   0.78909497   0.12520126
