28
Energy:   -901.60295970
O    0.40146084  -2.24085805   2.61772217
H    0.53823047  -2.82673624   1.87322726
H    0.27038086  -1.37848815   2.22355464
O   -1.93262200  -1.47558807  -0.32304451
H   -1.51804893  -1.41546219  -1.18371047
H   -1.35341246  -0.98174551   0.25735854
O    3.25797985   1.64791245  -0.34678673
H    2.61708189   2.35837546  -0.31988023
H    2.73987319   0.85253816  -0.22359145
O    0.37520728  -2.99596248  -0.07421312
H   -0.53423310  -2.70452768  -0.00928393
H    0.89154355  -2.19763115   0.03667328
O   -2.27669949   1.27253383  -0.86115729
H   -2.58468499   0.41671745  -0.56290387
H   -1.32289052   1.19311570  -0.87431306
O   -1.18459821   2.27088980   1.50332161
H   -0.64835536   1.47895020   1.46449991
H   -1.75108904   2.21509556   0.73377175
O    0.82280833   3.16509148  -0.34224492
H    0.29307434   3.21325943   0.45355254
H    0.75265429   2.25248983  -0.62236719
O   -0.05101075  -1.43851740  -2.33037598
H    0.13266793  -0.63181909  -1.84899066
H    0.26188128  -2.13732110  -1.75591640
C    0.75538278   0.25530633   0.32469058
O    1.65853298  -0.75133200   0.10569889
O   -0.25913681  -0.20691677   1.12105644
O    0.24066487   0.67527377  -0.87383895
