28
Energy:   -896.72230736
O   -1.25158653  -1.35176707   1.99662951
H   -1.19673521  -1.54242113   1.06021389
H   -0.97345992  -0.43900379   2.07239644
O    1.46912621  -1.47470342   1.50225293
H    0.59803404  -1.68222644   1.84043111
H    1.31083005  -1.14448516   0.61787175
O    1.50998544   1.19394269  -2.56647454
H    0.72660057   1.74369554  -2.58413239
H    1.27193476   0.45485191  -2.00673484
O   -0.61186274   2.72702099  -1.71930270
H   -0.90460312   1.86155696  -1.43380852
H    0.11989789   2.93640423  -1.13885728
O   -3.38621702  -0.17885724   0.61202794
H   -2.97049362  -0.73567341   1.27033004
H   -2.68218533   0.03586093   0.00009057
O    1.65911923   2.53157541  -0.14930342
H    1.13419789   2.02286533   0.46867998
H    1.75785370   1.95804818  -0.90927044
O    1.04156504  -3.50696629  -0.37744018
H    0.39538396  -2.88992815  -0.72087256
H    1.48627795  -3.02532868   0.32004637
O    0.16528135   0.98672447   1.57944892
H   -0.29545208   0.79475284   0.76268491
H    0.84329057   0.31346174   1.63648079
C   -0.46697544  -0.59437211  -1.07787227
O   -0.98611407  -1.75083062  -0.55820201
O    0.85875169  -0.49934686  -0.74543195
O   -1.14495978   0.48070702  -0.56569818
