28
Energy:   -896.51775830
O    1.70261413   1.15643917   2.06039367
H    0.89789292   0.90542759   1.60690849
H    2.40179679   0.95177660   1.43951632
O   -2.96339561   0.65050888  -1.13623870
H   -2.09672446   0.28491836  -1.31359861
H   -2.94467668   0.87149250  -0.20508474
O   -2.60197598   0.42812250   1.58579656
H   -2.86804433  -0.45275241   1.32217017
H   -1.70596609   0.51558604   1.26060699
O    2.86662191   0.46557251  -0.37508332
H    2.32656859   1.20168617  -0.66267842
H    2.23831893  -0.22513409  -0.16439019
O    1.54320377  -1.56062575   2.52796903
H    1.61470908  -0.62110966   2.69657610
H    1.22975161  -1.61930659   1.62545246
O    1.58687963  -0.41243484  -2.70691133
H    0.81651899  -0.65682401  -2.19402707
H    2.27605763  -0.27916113  -2.05613975
O   -3.01395931  -1.85356829   0.01604101
H   -3.24776317  -1.10270340  -0.52964162
H   -2.05683111  -1.85296449   0.02774902
O    0.82061463   1.92474511  -1.44789857
H    0.36674011   1.45530618  -0.74800082
H    0.98080221   1.26021341  -2.11795036
C   -0.24872701  -0.72748867  -0.04227520
O   -0.67545183  -0.68482539  -1.34344550
O   -0.25311894   0.53858793   0.48129862
O    1.02239928  -1.23721531   0.00459580
