28
Energy:   -896.11610030
O   -1.40414939  -0.64726792   2.29971129
H   -0.75341603  -0.82344851   1.62019798
H   -2.11193906  -0.19337559   1.84227563
O   -2.75071423   1.12755292   0.61766891
H   -2.32851104   0.48854344   0.04352329
H   -2.02552082   1.61450852   1.00907742
O    2.76233261   0.05583840   0.84065101
H    2.83251291   0.62117675   0.07143120
H    1.85505262  -0.24913098   0.83237208
O   -1.12210252  -3.23830997  -0.34510578
H   -0.36464871  -3.20379600   0.23910681
H   -1.26869663  -2.32796224  -0.60202801
O    2.49998999  -1.86589760  -1.10040220
H    2.88101552  -1.40898723  -0.35054601
H    1.56246137  -1.68169377  -1.04260185
O    2.49923972   0.83520617  -1.81581449
H    2.61759749  -0.11455107  -1.82939661
H    1.61834938   0.96226015  -1.46350590
O   -1.82292209   2.35510077  -1.70614180
H   -1.05811889   1.80461316  -1.53800106
H   -2.45011109   2.10866990  -1.02633475
O   -0.34573710   1.81910965   1.69370045
H   -0.08685330   1.54365809   0.81430437
H   -0.53468934   1.00208061   2.15521150
C   -0.08632368  -0.37795968  -0.69560947
O   -1.43484630  -0.59720282  -0.79747980
O    0.37833875  -0.92570419   0.47107967
O    0.15814174   0.97037831  -0.69684751
