28
Energy:   -897.39105827
O    1.53049234   2.48871594   0.35998439
H    1.44331708   1.55845482   0.56794250
H    0.67954730   2.86547179   0.58399203
O   -0.08982444   1.49015769  -1.60911583
H   -0.41483972   0.79306307  -1.03932989
H    0.64886685   1.86642058  -1.13058343
O    2.06385482  -2.35670304   1.59148995
H    1.26233489  -2.86256558   1.45769633
H    1.82320308  -1.45984836   1.35917495
O   -1.24767554   2.89033321   0.45606526
H   -1.01941370   2.16859803   1.04192080
H   -1.06589615   2.55383482  -0.42140664
O    1.86807026  -0.49391467  -1.82783276
H    1.21222165   0.11382236  -2.16951997
H    1.73480082  -0.48283252  -0.88002039
O   -3.21640349   0.92294870   0.39714271
H   -2.46942501   0.32457121   0.38302248
H   -2.82637583   1.79138143   0.49681658
O   -0.25260064  -2.21247820  -1.59615024
H    0.62134798  -1.87513039  -1.79272619
H   -0.61823715  -1.58364071  -0.97397245
O   -0.51769432  -3.14645662   0.98219830
H   -0.56628635  -2.22407232   1.23335138
H   -0.38472425  -3.13042824   0.03441462
C   -0.09770878  -0.21719614   1.08975648
O   -0.44540741   0.87830829   1.83536635
O    1.18554787  -0.06987093   0.63297817
O   -0.95166098  -0.33380475   0.02441697
