28
Energy:   -898.33306698
O    0.51248737  -1.48135827   2.82351060
H    0.21780214  -1.37792000   1.91869405
H    0.58315580  -0.58678547   3.15664318
O    2.21574479   1.81857107   0.86390069
H    1.31769670   1.73179904   0.54419443
H    2.63169469   0.98605822   0.63998132
O    0.46838623   1.35432591   3.15396314
H   -0.21252670   1.07048306   2.54402653
H    1.22182460   1.55179797   2.59757546
O    2.55092851  -0.71879670  -0.31629645
H    2.39626931  -0.33657276  -1.18013511
H    1.67859909  -0.80255732   0.06874560
O    1.27832530   0.30156301  -2.54010546
H    0.74861217  -0.48285412  -2.68267343
H    0.88666475   0.71951228  -1.77319460
O   -2.32739084   0.96628882  -1.77039880
H   -2.81804049   0.33155192  -1.24828404
H   -1.52484985   1.11833068  -1.27135664
O   -0.93238488  -1.37248287  -2.15451296
H   -0.53538960  -1.27802634  -1.28865815
H   -1.37625272  -0.53829618  -2.30730613
O   -2.98086904  -1.24570020  -0.26399537
H   -2.37376425  -1.60181691  -0.91271449
H   -2.43190546  -0.71303534   0.31145140
C   -0.22826792   0.30725809   0.57798052
O   -1.49304456   0.45877416   1.08230312
O   -0.06986734   1.12438209  -0.51028251
O   -0.04026053  -0.99690766   0.20170254
