28
Energy:   -895.74337909
O    0.00555073  -2.95649661  -1.28781633
H    0.61379020  -2.45040087  -0.74916645
H   -0.71306942  -2.35140575  -1.47134283
O   -1.74148150  -2.94724695   0.88257933
H   -1.11393513  -3.21026636   0.20934965
H   -1.44919035  -2.07793953   1.15662738
O    1.86996120   0.62271791   2.16112868
H    1.95196285  -0.25203759   1.78124660
H    0.96099118   0.87236682   1.99475327
O    1.89982885   1.20135123  -0.52775421
H    2.06389475   1.19394668   0.41525130
H    0.97466447   0.97076243  -0.61220254
O    0.62537572   3.58074761   0.14487109
H    0.07064079   2.98878968   0.65289356
H    1.22825528   3.00263216  -0.32262287
O   -2.22577790  -1.40262135  -1.35475102
H   -1.68726048  -0.66331663  -1.07251111
H   -2.37891388  -1.90685441  -0.55567015
O   -1.29919435   2.73637203  -1.61394653
H   -1.22575837   1.85637973  -1.24455166
H   -0.70490666   3.26891352  -1.08531287
O    1.60168039  -1.42276850   0.30812549
H    1.85158666  -0.68773479  -0.25178892
H    0.75359433  -1.16937879   0.67250925
C   -1.00046471   0.44592025   0.69858136
O   -0.48969524   1.53685624   1.35121571
O   -0.59499318  -0.69774392   1.33476048
O   -0.54780689   0.43466937  -0.59476875
