28
Energy:   -896.55404212
O    0.16088303  -2.90887758   1.16391668
H    0.61225822  -2.25923796   0.62497267
H   -0.76748163  -2.77695250   0.97164947
O   -2.24027866  -2.00507534   0.00552326
H   -1.50394262  -1.57894206  -0.43316970
H   -2.70981125  -1.29025698   0.43541361
O    2.79312348   0.65632444  -1.69641525
H    2.34172840   1.49762132  -1.62790333
H    2.25729190   0.05377170  -1.18061823
O    1.04036254  -0.69592395   2.68827823
H    0.72535608  -1.55119205   2.39584147
H    1.04081789  -0.15701332   1.89719860
O   -2.70199907   0.70305007   0.62095430
H   -2.02778261   0.51048489  -0.03064578
H   -2.21401683   0.97813789   1.39711915
O   -0.80848374   1.42261268   2.49977095
H   -0.41481087   0.67800321   2.95453490
H   -0.40631667   1.41327313   1.63120531
O    0.82502856   2.56894580  -1.63182388
H    0.69146668   2.04013788  -0.84521390
H    0.54106817   2.00496420  -2.35121467
O    0.53444422   0.34309055  -3.24561915
H    0.00117547   0.16001192  -2.47209572
H    1.43701006   0.30694079  -2.92891749
C    0.12349205  -0.20022876  -0.04052221
O    1.13591787  -1.00342196  -0.49531120
O   -0.76574753   0.03272586  -1.05643751
O    0.64523695   0.99061440   0.39243854
