28
Energy:   -898.52423659
O    1.71598973  -1.23675876   1.59962828
H    1.57294275  -0.98722379   0.68666513
H    1.05251552  -0.74971346   2.08832114
O   -0.27169512   0.59894703   2.14368666
H   -0.58884783   0.08626686   1.40017805
H    0.41957360   1.15052932   1.77744032
O   -1.57031050   2.41668356   0.51007635
H   -1.35605649   1.85853414   1.25760313
H   -1.31273924   1.90240412  -0.25504165
O    1.22339743   2.14777790   0.50087888
H    1.18970737   1.32993918   0.00465649
H    0.35624628   2.53568346   0.38336293
O   -3.42440988   0.41009519  -0.09415139
H   -3.12425721   1.29870547   0.09692971
H   -2.62030834  -0.08979263  -0.23473847
O    1.76376483   1.06673302  -2.94716441
H    0.91194540   1.46388420  -3.12856571
H    1.62185374   0.54460745  -2.15755820
O   -0.23780010  -2.98119991   0.77825884
H   -0.63952083  -2.21825880   0.36259892
H    0.55986216  -2.64134451   1.18380177
O    1.33079074  -2.76946575  -1.46408838
H    0.75784109  -3.10397859  -0.77411613
H    1.19582327  -1.82193784  -1.44971834
C   -0.27371330  -0.23025053  -1.05337431
O   -0.68038991   1.01268808  -1.46163420
O   -1.01702800  -0.62102031   0.02916023
O    1.05115629  -0.18570453  -0.70621955
