48
Energy:   -668.99852961
O    2.88374095  -1.01525657  -3.20723462
H    3.48808242  -1.67727026  -3.54300404
H    2.41413137  -1.45608957  -2.49916332
O   -0.14103333   1.87945403  -0.23182619
H    0.59619161   1.32988521   0.03407857
H    0.11242068   2.22291039  -1.08858207
O    0.50632363   0.16084062  -4.05067893
H    1.37464114  -0.22467499  -3.93391305
H    0.57807882   1.03465889  -3.66658954
O   -3.57575089   1.11038351   1.57874660
H   -2.92485552   1.78406781   1.77551177
H   -3.27483687   0.71804982   0.75913884
O   -2.93034949  -0.75376494   3.40697668
H   -3.68783263  -0.99739994   3.93904164
H   -3.26650963  -0.09661575   2.79756454
O   -2.08946146  -0.02530694  -0.49316823
H   -1.41644317   0.65304829  -0.43737923
H   -1.86506321  -0.52185470  -1.28013556
O    0.79855280  -2.86226008   1.29939871
H   -0.14870288  -2.72829224   1.33088108
H    1.15074684  -2.23510078   1.93095426
O   -1.81557784  -2.12030922   1.27742934
H   -1.93097442  -1.41568332   0.63992028
H   -2.21343868  -1.78468953   2.08073378
O    3.23401093   1.38451093  -1.86020532
H    3.29777613   0.58807279  -2.38732213
H    2.98301563   1.07648798  -0.98936947
O   -0.51677110   0.58418861   3.65039757
H   -0.76856142   1.38232749   3.18584638
H   -1.32198495   0.06860315   3.69549917
O    1.94500319   0.24430145   0.31212028
H    1.96733436  -0.04546439   1.22413395
H    1.71622507  -0.54173883  -0.18389695
O   -1.05447567  -1.46670723  -2.58316993
H   -0.58630091  -0.87309756  -3.17025748
H   -1.52415179  -2.06151041  -3.16784537
O    0.94857563   2.53105625  -2.68660575
H    1.80820724   2.21215530  -2.41171023
H    1.13165438   3.35372557  -3.14039999
O   -1.35794415   2.70871652   2.06555636
H   -0.90053432   2.51882880   1.24644053
H   -1.25507162   3.65290197   2.18456449
O    1.28949076  -1.94813322  -1.19191473
H    0.42188564  -1.89337089  -1.59253211
H    1.14747897  -2.42932874  -0.37673660
O    1.69978928  -0.74367590   2.86488385
H    2.25497709  -0.81084883   3.64172755
H    0.91433093  -0.28945884   3.16980005
