48
Energy:   -664.14112384
O    3.40100380  -0.43129711  -2.58580709
H    4.32474283  -0.60120071  -2.77038991
H    3.16152380  -1.08976811  -1.93365901
O   -1.24378078   0.78891733  -0.89026446
H   -0.45816660   1.01598739  -0.39278943
H   -1.04660957   1.05962633  -1.78696508
O    1.07142449  -0.90503021  -4.01421979
H    1.94103182  -0.71591659  -3.66172728
H    0.57784781  -0.09554023  -3.88253882
O   -2.27216511   3.51377406   1.96813773
H   -2.59092941   2.63380915   1.76743165
H   -3.06502594   4.02529225   2.12923609
O   -2.77794795   0.85807877   1.41296827
H   -2.96451538  -0.06844578   1.56454892
H   -2.37133265   0.88242283   0.54676782
O   -1.17845281  -1.91178781  -0.50347790
H   -1.27352429  -1.00190697  -0.78509843
H   -0.75717732  -2.34923552  -1.24334161
O    0.89772727  -1.41746735   1.17137253
H    0.16527269  -1.63506434   0.59483660
H    0.59567054  -1.66242192   2.04601007
O   -2.71489440  -1.84418842   1.80781974
H   -2.31177357  -2.05421230   0.96543300
H   -2.02827526  -2.01658234   2.45207617
O    2.11647770   1.91496046  -1.91126840
H    1.85492832   1.77133783  -1.00176507
H    2.67658898   1.16756031  -2.12079218
O   -1.06016366   0.71310242   3.59307672
H   -1.72314908   0.77197851   2.90516990
H   -0.48957347   1.46656586   3.44157911
O    1.01843972   1.25882281   0.53116039
H    0.85164350   1.81920947   1.28903746
H    1.08489690   0.37611805   0.89536856
O    0.35257919  -3.00640559  -2.50015533
H    0.20205317  -3.76020562  -3.07055806
H    0.55363175  -2.28798716  -3.09989250
O   -0.13050174   1.49004245  -3.32049769
H   -0.28926990   2.21953616  -3.91954980
H    0.67178534   1.73036106  -2.85701709
O    0.30205370   2.91310440   2.62001662
H   -0.56467123   3.23853072   2.37687581
H    0.75615329   3.67904976   2.97123325
O    2.52047493  -2.33358052  -0.89050644
H    1.81106346  -2.72405922  -1.40089218
H    2.10860345  -2.07438896  -0.06624103
O   -0.49292995  -1.90733255   3.51352795
H   -0.65753785  -0.97396385   3.64753901
H   -0.45114092  -2.27294780   4.39716306
