48
Energy:   -675.32067346
O    3.33981776  -0.85844923  -2.72668843
H    4.19967419  -1.21138083  -2.95541983
H    2.96948655  -1.50160041  -2.12216945
O   -0.87037665   1.30873138  -0.93659141
H   -0.05333379   1.29234772  -0.43818958
H   -0.60621942   1.55746400  -1.82235938
O    0.93873344  -0.72187148  -4.10733436
H    1.83476146  -0.75746046  -3.77252240
H    0.66064970   0.18099139  -3.95325672
O   -1.92641445   2.77680403   1.15725427
H   -1.71696456   2.34039472   0.33147615
H   -2.51856216   2.17233064   1.60469686
O   -3.32956794   0.91582501   2.65040386
H   -4.24534926   0.94346505   2.92755445
H   -3.20078555   0.02083115   2.33634506
O   -1.41049166  -1.33166949  -0.51944113
H   -1.34092669  -0.40927113  -0.76555866
H   -1.13739749  -1.81016306  -1.30218970
O    0.82916281  -1.45031112   1.00428037
H    0.02822510  -1.45037017   0.48013285
H    0.53556098  -1.65858004   1.89121547
O   -2.75214061  -1.59591939   1.88287341
H   -2.41087671  -1.59985982   0.98858304
H   -2.00191415  -1.83513763   2.42708545
O    2.64357295   1.68582891  -1.90533050
H    2.36900419   1.57045416  -0.99564236
H    3.00964496   0.83735837  -2.15497199
O   -0.97848488   0.71925409   4.10552603
H   -1.84935742   0.85468824   3.73206861
H   -0.43338995   1.38887348   3.69235144
O    1.41901188   1.17159622   0.52165446
H    1.18316368   1.67350436   1.30184398
H    1.33579899   0.25673488   0.79060833
O   -0.26579305  -2.63465937  -2.65067448
H    0.09785564  -1.96044741  -3.22463415
H   -0.61160682  -3.29760807  -3.24828948
O    0.37478636   1.87275698  -3.33166976
H    0.38758865   2.65553333  -3.88242301
H    1.20862910   1.89596880  -2.86220268
O    0.33691976   2.61951243   2.59270199
H   -0.46710374   2.77173675   2.09610778
H    0.59516064   3.48734705   2.90319607
O    2.08008123  -2.64982375  -1.15681332
H    1.27464160  -2.80985620  -1.64863490
H    1.78176083  -2.33234957  -0.30449476
O   -0.43881528  -1.82690249   3.42098023
H   -0.57236362  -0.93092866   3.73021734
H   -0.28999686  -2.33609709   4.21772723
