48
Energy:   -672.17694675
O    3.18733107   0.87539812  -3.36829791
H    3.61626978   0.32484426  -2.71321480
H    3.90684451   1.32026756  -3.81620800
O   -2.38635417   0.35799372  -0.26006447
H   -2.03985919  -0.34784284   0.28579983
H   -3.18409661   0.63862629   0.18835967
O   -0.57128129  -0.22493416  -2.31118476
H   -1.36850952  -0.03066059  -1.81831888
H    0.03884710   0.47006878  -2.06431209
O    1.41500365  -1.14409556  -4.06694701
H    0.62334673  -0.81916109  -3.63807785
H    2.03046515  -0.41244554  -4.02082506
O    2.20705945  -3.29292579  -2.65185380
H    1.98783129  -2.55628065  -3.22240161
H    2.42609676  -4.00503656  -3.25281366
O   -4.23662219   1.17596626   1.63282234
H   -5.09083960   1.60719615   1.65701452
H   -3.62950975   1.82605056   1.98642768
O    0.48102694   0.44062630   2.27204591
H    0.06472020   0.59600735   3.11985324
H    0.17905675   1.16235167   1.72054038
O   -3.05583876  -0.74298967   3.27597603
H   -2.52107688  -1.23607280   2.65377782
H   -3.60273936  -0.17951951   2.72858863
O   -1.20363256   0.91099889   4.37189902
H   -1.88201629   0.28684821   4.11409424
H   -1.21022677   0.89093721   5.32886605
O    1.30183350   1.51672834  -1.39604602
H    1.91320236   1.53841686  -2.13224543
H    1.70028469   0.91113258  -0.77096820
O   -2.33196185   2.78632428   2.63235245
H   -1.67487513   2.84485669   1.93877992
H   -1.90570794   2.28124521   3.32476460
O   -1.18419154  -1.49669260   1.32498259
H   -0.55078124  -0.89668351   1.71869864
H   -0.66859984  -2.02270297   0.71366424
O   -0.57757839   2.24829429   0.52605432
H    0.08941952   2.30732183  -0.15794961
H   -1.23753364   1.65509720   0.16715583
O    4.16643285  -0.85716335  -1.52718019
H    3.63373755  -0.67556781  -0.75291239
H    3.94928973  -1.75944264  -1.76164298
O    2.20403552  -0.39161069   0.32091403
H    1.81442828  -0.15439773   1.16244124
H    1.65563544  -1.10534858  -0.00476590
O    0.51158568  -2.19547311  -0.76416279
H    1.01459908  -2.78106660  -1.33010417
H    0.03539443  -1.62716133  -1.36955147
