48
Energy:   -664.42906165
O    2.94996109   1.36935098  -2.99871310
H    3.58689018   1.67540463  -3.64437891
H    3.25303836   0.49359432  -2.75907525
O   -3.25747731   0.51969975  -0.47868271
H   -3.19461421  -0.42680595  -0.35059270
H   -3.45706718   0.86680249   0.39075126
O   -1.21286913   1.77444338  -1.70072774
H   -1.94963742   1.29560911  -1.32109362
H   -1.60537729   2.56576521  -2.06948099
O    0.41581562   0.34507565  -3.40064738
H   -0.18769112   0.83067281  -2.83832465
H    1.24347259   0.82097829  -3.33185445
O    1.09191962  -2.14470374  -2.65061959
H    0.78455025  -1.28462465  -2.93701072
H    0.96493894  -2.71070679  -3.41203164
O   -3.61181163   1.36609637   2.13209520
H   -4.20454604   1.99595919   2.54218127
H   -2.73773959   1.64899722   2.40079025
O    0.98850163  -0.71618059   1.35239045
H    0.56167058  -0.79522150   2.20550218
H    0.72704848   0.14719554   1.03230336
O   -2.95396242  -1.24955660   2.74213906
H   -3.32537236  -0.37914929   2.59834194
H   -2.97741520  -1.66582807   1.88051276
O   -0.49318235  -0.68016507   3.66871325
H   -1.35846446  -0.95800328   3.36817266
H   -0.42450748  -1.02871006   4.55755069
O    2.90592502   2.07017683  -0.32889101
H    3.28069154   1.25986535   0.01632952
H    2.93699016   1.96301479  -1.27956609
O   -1.09566114   1.92578444   2.88980454
H   -0.55154971   2.03188086   2.10947246
H   -0.80072809   1.10196181   3.27782853
O   -2.92561803  -2.15610880   0.13681880
H   -1.99658832  -2.30350297  -0.04041159
H   -3.36190491  -2.93652787  -0.20498770
O    0.35544366   1.79794672   0.54407658
H    1.23539564   2.04402099   0.25883315
H   -0.17421624   1.83526596  -0.25235265
O    3.59425027  -1.09650824  -2.15529551
H    2.78187017  -1.58364102  -2.29303464
H    3.65551888  -0.99570730  -1.20539174
O    3.57828520  -0.48606814   0.54399990
H    4.16591938  -0.75989403   1.24822806
H    2.69983416  -0.64969191   0.88719503
O   -0.29336958  -2.48455414  -0.29992210
H    0.18593358  -2.42633462  -1.12642728
H    0.18776581  -1.91185946   0.29737297
