48
Energy:   -664.80423149
O    3.20996203  -0.30721006  -2.93734605
H    4.15244681  -0.44015159  -3.03874051
H    2.92875027  -1.01506769  -2.35761390
O   -1.04339908   1.35282912  -0.70028385
H   -0.19749084   1.38315998  -0.25334857
H   -0.85256137   1.63554654  -1.59464601
O    0.89914997  -0.34820116  -4.42107421
H    1.75268900  -0.30276708  -3.99021609
H    1.07751712  -0.11510170  -5.33216238
O   -2.10527552   2.56977149   1.54381928
H   -1.90589766   2.23767105   0.66849671
H   -2.62142930   1.87484425   1.95234498
O   -3.27034388   0.45722061   2.90319883
H   -4.17605389   0.38747192   3.20495428
H   -3.08590064  -0.39086255   2.49950652
O   -1.31744793  -1.33994879  -0.54509046
H   -1.34193929  -0.39264205  -0.68015331
H   -1.05224008  -1.69646376  -1.39290749
O    0.98660775  -1.39945432   0.87974707
H    0.16285424  -1.41408415   0.39246074
H    0.75152100  -1.70001657   1.75760150
O   -2.52730179  -1.91728908   1.87578825
H   -2.22667091  -1.81272690   0.97305923
H   -1.73536479  -2.13069221   2.36927253
O    2.37784341   2.10117557  -1.84134472
H    2.14480438   1.90252945  -0.93444650
H    2.76486183   1.29083098  -2.17269080
O   -0.83507495   0.35470732   4.22387381
H   -1.73277289   0.44715694   3.90477613
H   -0.36953462   1.10334539   3.85098631
O    1.34525065   1.29644925   0.60369470
H    1.10329242   1.71710292   1.42876352
H    1.34187404   0.35996746   0.80174090
O   -0.20305186  -2.32910087  -2.86924230
H    0.08989935  -1.64730154  -3.47385879
H   -0.58437190  -3.00213944  -3.43302059
O   -0.01788212   1.94157689  -3.14470630
H    0.81710252   2.18277899  -2.74364016
H    0.17829354   1.15412435  -3.65231388
O    0.24836483   2.47979372   2.82857016
H   -0.59284555   2.60508132   2.38936638
H    0.46976535   3.34451385   3.17421848
O    2.18940427  -2.29481033  -1.44299728
H    1.37040967  -2.47981813  -1.90261865
H    1.91994069  -2.07709326  -0.55068539
O   -0.13694110  -2.07353851   3.30161068
H   -0.32400399  -1.21835510   3.68878075
H    0.08247696  -2.63185398   4.04751376
