48
Energy:   -676.71627243
O    3.01180858   1.22474404  -3.33112358
H    3.40561838   0.44773597  -2.93438166
H    3.74224949   1.67280650  -3.75765372
O   -2.27259263   0.76410634  -0.01013382
H   -3.01075426   0.90488086   0.58276735
H   -1.57403279   1.31632041   0.34101516
O   -0.65694126   0.26601852  -2.22388032
H   -1.42621326   0.47441912  -1.69376559
H    0.03680159   0.82192965  -1.86903454
O    1.00084714  -0.38903525  -4.37573504
H    0.25438630  -0.12248604  -3.83909775
H    1.67958100   0.25709256  -4.18061698
O    1.90018658  -2.68552689  -3.29311088
H    1.56818749  -1.92690171  -3.77321118
H    1.97631129  -3.37346093  -3.95430951
O   -3.89788805   1.07400492   2.14674311
H   -3.35294555   1.72737259   2.58535480
H   -3.73287864   0.26250865   2.62682387
O    0.56219228  -0.25545785   2.31675413
H    0.21363692  -0.07304643   3.18937494
H   -0.09455037  -0.82011000   1.90921409
O   -2.93919449  -1.26463341   3.31635733
H   -3.39138665  -2.05041823   3.62343439
H   -2.45489097  -1.55328552   2.54281877
O   -0.99518086   0.38116067   4.45194725
H   -1.70583334  -0.22292556   4.23680839
H   -1.32604828   1.24198245   4.19554041
O    1.43524913   1.58427788  -1.08202240
H    2.00002625   1.69095151  -1.84744998
H    1.79584780   0.82661427  -0.62142898
O   -1.90098921   2.70407159   3.21101316
H   -1.88401842   3.61929085   3.49086586
H   -1.27537527   2.66263522   2.48774137
O   -1.43363022  -1.60144471   1.02581361
H   -1.80510921  -0.82422447   0.60848412
H   -0.95718669  -2.04582531   0.32455809
O   -0.17673905   2.08034338   1.14590395
H    0.16734784   1.31127061   1.60017604
H    0.41612934   2.20672224   0.40511565
O    3.82701537  -1.04672733  -2.13504043
H    3.50752488  -0.99627303  -1.23414530
H    3.30200457  -1.73857080  -2.53746822
O    2.21384011  -0.72902717   0.12429093
H    1.91940857  -0.62109267   1.02866478
H    1.55441464  -1.29514357  -0.27683513
O    0.23190485  -2.08007442  -1.16625393
H    0.74399559  -2.50700098  -1.85307897
H   -0.15292999  -1.31520314  -1.59416271
