48
Energy:   -666.96975376
O    3.70889403   1.26823030  -2.55053032
H    4.29189813   1.77973041  -3.11151669
H    3.12973273   0.81075636  -3.16005606
O   -2.19470702   0.93160913  -0.46316016
H   -1.55971934   1.35073520   0.11766324
H   -3.04058585   1.07852424  -0.03991459
O   -0.12609091   0.46771207  -2.27461147
H   -0.98303935   0.68694273  -1.90881215
H    0.49286425   0.99285368  -1.76731210
O    1.96493773  -0.16446170  -4.01978617
H    2.11328805  -1.07173566  -3.75318163
H    1.11106314   0.05811217  -3.64885369
O    2.51728127  -2.59328954  -2.77637144
H    3.16205232  -2.15363975  -2.22210599
H    2.96699556  -3.37696454  -3.09234994
O   -4.35979725   1.05869352   1.26328606
H   -4.25314762   0.18621716   1.64228832
H   -5.30645760   1.19948499   1.24767256
O    0.71518546   0.16769601   2.90124948
H   -0.15088293  -0.06489883   3.23599868
H    1.21440410   0.41616137   3.67924535
O   -3.70543460  -1.42860314   2.26261335
H   -4.08588610  -2.26538731   2.52959792
H   -3.12183864  -1.65087302   1.53718678
O   -1.80470851  -0.12158435   3.80275187
H   -2.46311639  -0.65819200   3.36140944
H   -2.09519483   0.77941018   3.66112416
O    1.71295880   1.68739463  -0.67985967
H    2.45043999   1.76475140  -1.28514413
H    1.90455741   0.90204698  -0.16726735
O   -2.53393246   2.35064079   2.91710733
H   -1.79472852   2.50250811   2.32825616
H   -3.23954880   2.05069025   2.34407408
O   -2.06298203  -1.72499442   0.15053370
H   -2.11819702  -0.81269975  -0.13389835
H   -1.24534966  -2.04591466  -0.22988626
O   -0.33102923   2.05352140   1.19290427
H    0.04913603   1.43222159   1.81394595
H    0.37581925   2.23729638   0.57417667
O    4.12355484  -1.12684901  -1.18992527
H    4.14845135  -0.26582525  -1.60735800
H    3.59016826  -0.99798421  -0.40562656
O    2.06801785  -0.66051968   0.63636263
H    1.63898075  -0.51997722   1.48040460
H    1.45228426  -1.20079354   0.14117767
O    0.41002332  -1.93453797  -1.10864488
H    1.04749690  -2.36120732  -1.68119404
H    0.16009710  -1.13896163  -1.57856723
