48
Energy:   -673.04942128
O    3.20539055   0.84603279  -3.38086661
H    3.60891197   0.28852685  -2.71559265
H    3.94262466   1.28338604  -3.80682418
O   -2.39314770   0.33416078  -0.26579155
H   -2.04666144  -0.35550564   0.30037041
H   -3.19692640   0.61987841   0.16841703
O   -0.57418927  -0.29360200  -2.30124601
H   -1.37093173  -0.09393493  -1.80975200
H    0.02949874   0.41482433  -2.07780748
O    1.44674212  -1.20420001  -4.02884973
H    0.65286150  -0.87554467  -3.60698355
H    2.04545075  -0.45735349  -4.02853606
O    2.32117403  -3.28694235  -2.55941500
H    2.08280140  -2.56873938  -3.14558463
H    2.55956834  -4.00560686  -3.14500983
O   -4.26469493   1.17022722   1.60634121
H   -5.11899751   1.60176767   1.61944794
H   -3.65707081   1.83068906   1.93922998
O    0.46758563   0.49022929   2.25618707
H    0.05100283   0.65662263   3.10176609
H    0.16182624   1.20192188   1.69383779
O   -3.05835583  -0.70036188   3.28758702
H   -2.51538154  -1.20488656   2.68189269
H   -3.60261164  -0.15218021   2.72233104
O   -1.21623068   0.98912457   4.34969838
H   -1.89299528   0.35560539   4.11121364
H   -1.21864878   0.99398364   5.30688300
O    1.27942535   1.49885813  -1.44424192
H    1.90337883   1.52542621  -2.16964390
H    1.68211195   0.91370107  -0.80262945
O   -2.36270211   2.81510232   2.56418162
H   -1.70448993   2.86553118   1.87103986
H   -1.93179930   2.33257615   3.26967655
O   -1.17448202  -1.47910464   1.34666831
H   -0.54392297  -0.86965664   1.73033518
H   -0.65309990  -2.02490576   0.75803117
O   -0.60346346   2.25520822   0.47860782
H    0.06546682   2.29952462  -0.20461995
H   -1.26009518   1.65069714   0.13272780
O    4.12301723  -0.91866949  -1.51813333
H    3.60484831  -0.68943079  -0.74665265
H    3.84597581  -1.80821606  -1.73764824
O    2.19310688  -0.35355483   0.32962946
H    1.80128209  -0.10725429   1.16750847
H    1.65827915  -1.08464066   0.02026775
O    0.54345029  -2.21470201  -0.71642036
H    1.06938993  -2.78813045  -1.27391399
H    0.05251735  -1.66798092  -1.32986371
