48
Energy:   -663.91535382
O    3.42511401  -0.57492793  -3.89582501
H    3.69403530   0.22409237  -3.44252627
H    3.26590044  -1.20667960  -3.19455993
O   -0.85751489   1.47829600  -0.68191894
H   -0.06947558   1.46869954  -0.13865676
H   -0.54861442   1.74370843  -1.54815713
O    0.77924848  -0.25066107  -4.57473383
H    1.72923408  -0.35366085  -4.51860676
H    0.60334470   0.58878787  -4.14974539
O   -2.12527715   2.54047477   1.54663867
H   -1.85838992   2.25745751   0.67205061
H   -2.69405011   1.83853325   1.86287793
O   -3.40633323   0.40497864   2.74676188
H   -2.69914280   0.35231613   3.38967727
H   -4.20122300   0.49962846   3.27156994
O   -1.25086997  -1.21846671  -0.60904846
H   -1.23898791  -0.26808199  -0.72244845
H   -0.99465143  -1.56534353  -1.46360120
O    0.98993423  -1.41665303   0.91441031
H    0.18853724  -1.40438052   0.39110915
H    0.71083789  -1.73372670   1.77336396
O   -2.53023889  -1.99873947   1.71569450
H   -2.23506115  -1.80629943   0.82571204
H   -2.97034078  -1.19801802   2.00097916
O    2.60430869   1.05847455  -1.56875235
H    2.39330421   1.30536485  -0.66833348
H    2.50535373   0.10656044  -1.58605245
O   -1.24866340   0.22850953   4.34208675
H   -0.81452128  -0.57878828   4.06636458
H   -0.68364506   0.92857449   4.01513847
O    1.35532466   1.28575474   0.89662464
H    1.04913550   1.66494772   1.72045274
H    1.31188123   0.33990072   1.03699804
O   -0.11562323  -2.16864033  -2.93229048
H    0.11240345  -1.49793141  -3.57601809
H   -0.37020574  -2.92787589  -3.45667675
O    0.53203582   2.01207021  -3.00994832
H    1.31621682   1.74009467  -2.53316608
H    0.75324320   2.87331272  -3.36429347
O    0.06268059   2.31344946   3.09038016
H   -0.72215145   2.48434025   2.56973935
H    0.22909512   3.13601580   3.55073076
O    2.23401465  -1.67555168  -1.57577655
H    1.44262521  -1.95420754  -2.03652107
H    2.01690278  -1.76835677  -0.64815513
O   -0.31521982  -2.12920648   3.23502304
H   -1.12438130  -2.17104513   2.72537701
H   -0.30271228  -2.94657594   3.73300154
