48
Energy:   -663.04315575
O   -0.89486164  -1.31101999  -1.21238474
H   -1.10181457  -1.20537804  -0.28381481
H   -0.04824589  -1.75757490  -1.22027992
O   -1.45756747  -0.87293331   1.40891644
H   -2.39411271  -1.06646125   1.36815109
H   -1.40836211   0.08249402   1.37778285
O   -4.18318383   1.69766640   0.63845409
H   -4.92430381   2.28910375   0.76950708
H   -4.09001560   1.63667125  -0.31224624
O    1.56013324   2.51136198  -1.58326265
H    1.90794966   3.32803443  -1.94145490
H    1.47761130   2.67712251  -0.64414316
O   -3.71328642   1.29984217  -1.97918826
H   -3.78366562   0.35118608  -2.08563192
H   -2.77828443   1.48295317  -2.07123979
O    0.99950441  -1.89906220   1.94404766
H    0.09407685  -1.59626214   1.87516447
H    0.99816078  -2.49050926   2.69665674
O    1.23012031   2.68496962   1.08103616
H    1.71025310   1.97124520   1.50091925
H    0.30909344   2.48695609   1.25054133
O    4.98416828  -0.96158766   1.91221052
H    4.89826598  -1.43500016   1.08472442
H    5.92093913  -0.98722304   2.10723627
O    4.52766253  -2.04088612  -0.54619927
H    3.75687952  -2.60099301  -0.63788176
H    4.25175442  -1.19377710  -0.89621765
O   -4.09388558  -1.07542154   0.84696487
H   -4.07171303  -1.29637414  -0.08412062
H   -4.26902917  -0.13457890   0.86624424
O    2.85993865   0.17814446  -0.91777844
H    2.49599720   0.97709643  -1.29916305
H    2.81253898   0.32032131   0.02761612
O   -1.41779354   1.79794892   0.94081486
H   -2.36291835   1.93053282   1.01424818
H   -1.25651753   1.73646658  -0.00069553
O    1.62669973  -2.25824765  -0.73229734
H    2.02369041  -1.40369247  -0.90071855
H    1.46140428  -2.26445858   0.21050205
O    2.58465773   0.34431993   1.78781524
H    3.46511799   0.02016062   1.97739982
H    2.01292456  -0.40660507   1.94739178
O   -3.55945498  -1.47283932  -1.86459685
H   -3.77808022  -2.18831191  -2.46170138
H   -2.61023161  -1.53208275  -1.75644390
O   -0.95176109   1.39731812  -1.70848797
H   -0.79128387   0.45421091  -1.67643020
H   -0.08437092   1.78446526  -1.82673874
