48
Energy:   -670.28217316
O    3.04290816   0.54124111  -3.58707957
H    3.54433475   0.09228828  -2.90645884
H    3.69543201   0.78822775  -4.24239787
O   -2.38989243   0.06615934  -0.22744607
H   -1.93827941  -0.47464566   0.42047945
H   -3.15954552   0.40020571   0.23329137
O   -0.59857533  -0.64310174  -2.24503340
H   -1.39875486  -0.43521515  -1.76261476
H   -0.05043371   0.13553122  -2.14754837
O    1.45729205  -1.71710563  -3.82390600
H    0.61326227  -1.41847421  -3.48528403
H    1.99207972  -0.92447676  -3.86832993
O    2.19162852  -3.68550642  -2.10938933
H    1.99350039  -3.03889320  -2.78678762
H    2.45152549  -4.46892135  -2.59410209
O   -4.20942248   1.14506288   1.52937895
H   -5.12278332   1.42661540   1.58164768
H   -3.70450977   1.92337053   1.76503165
O    0.56855446   0.93966483   2.24127303
H    0.09647714   1.18976689   3.03551721
H    0.18317142   1.48119249   1.55246279
O   -2.93827793  -0.44792750   3.43117263
H   -2.33018055  -0.96037486   2.89839957
H   -3.49601787  -0.00014695   2.79505112
O   -1.29310395   1.55912163   4.17817436
H   -1.89337192   0.82946214   4.02485363
H   -1.26693389   1.65231643   5.13046723
O    1.14283723   1.38795887  -1.72146558
H    1.75941944   1.34819759  -2.45254511
H    1.60326940   0.96615667  -0.99598852
O   -2.48153459   3.11113697   2.18093757
H   -1.83811481   3.03581801   1.47626041
H   -2.04254768   2.74189643   2.94721674
O   -0.94473360  -1.26436628   1.66190574
H   -0.34955354  -0.56726181   1.93765546
H   -0.41396783  -1.82207993   1.09315709
O   -0.73150317   2.19702409   0.19127633
H   -0.13333442   2.23722291  -0.55492074
H   -1.36098365   1.51477871  -0.04223472
O    4.19253711  -0.88578336  -1.56010243
H    3.66609132  -0.58395375  -0.81984196
H    4.02268158  -1.82659341  -1.60761431
O    2.26217841  -0.09487363   0.27914340
H    1.92829749   0.25052018   1.10706761
H    1.74519722  -0.88515631   0.12288856
O    0.66666801  -2.19433047  -0.38241216
H    1.15363757  -2.87096616  -0.85279141
H    0.14747085  -1.75863197  -1.05830636
