48
Energy:   -663.85864250
O    2.50412510  -1.14079130  -3.88422737
H    3.11024675  -0.84664850  -3.20428001
H    3.06294913  -1.55871359  -4.53942849
O   -1.97567742   0.34491207  -0.26863946
H   -1.65315459  -0.39130699   0.25116084
H   -2.74337487   0.65825739   0.20957303
O   -1.37072253  -0.60860586  -2.79521158
H   -1.70138170  -0.26411464  -1.96562001
H   -0.73435904   0.04321974  -3.08914481
O    0.47203427  -2.61268581  -2.66707856
H   -0.26837981  -2.01306035  -2.75910106
H    1.18775218  -2.18404239  -3.13638075
O    2.32270352  -0.76428607   0.23610275
H    2.04383115  -0.43543166   1.09068852
H    1.86659775  -1.60034797   0.14018680
O   -3.80761131   1.29093944   1.57998446
H   -4.65411764   1.73741384   1.56211027
H   -3.20524423   1.93351013   1.95480263
O    0.83800587   0.33546391   2.33349691
H    0.56666309   1.05364672   1.76181659
H    0.43330547   0.53472773   3.17773820
O   -2.76911147  -0.63603243   3.29671765
H   -2.24982830  -1.15913149   2.68602605
H   -3.28745603  -0.05793575   2.73693645
O   -0.90631310   0.97024501   4.39370416
H   -1.59070335   0.36689128   4.10421133
H   -0.95680775   0.94972778   5.34935116
O    0.76674573   0.95536416  -3.57473361
H    1.35466301   0.23760329  -3.81011512
H    0.73013163   1.50266758  -4.35917623
O   -1.90176619   2.87932393   2.62481745
H   -1.23466297   2.87723945   1.93837678
H   -1.51788767   2.36377145   3.33409509
O   -0.92621459  -1.51900748   1.41166631
H   -0.26637942  -0.93434803   1.78452382
H   -0.42153594  -2.17376179   0.92914366
O   -0.14081640   2.16845720   0.58904856
H   -0.79402202   1.59766078   0.18439351
H    0.58040471   2.19142004  -0.03987485
O    4.02940763  -0.14044646  -1.89594030
H    3.74835959   0.77125553  -1.81820150
H    3.72398299  -0.55535008  -1.08921691
O    1.88351920   1.61310011  -1.15282872
H    1.97378476   0.75567266  -0.73701369
H    1.44921670   1.43114367  -1.98619841
O    0.82526575  -3.06065271  -0.05151583
H    0.66192860  -2.95803155  -0.98907741
H    1.02732198  -3.99001914   0.05657286
