19
Energy:   -383.19191529
Na  -0.12508414  -0.40661778  -0.03055241
O   -0.47667546   1.56255350   3.53915264
H   -0.11017285   2.39026539   3.85028077
H   -1.03986063   1.26570975   4.25395199
O   -1.22688923   1.57087331   0.41437616
H   -1.20744194   1.95179183   1.29230254
H   -1.72444653   2.19924474  -0.10889998
O    0.89522010  -0.29328313   2.04425062
H    1.71444605  -0.44561893   2.51530739
H    0.42181065   0.33936589   2.58450109
O   -1.26178910  -2.40478150  -0.22141442
H   -1.63208960  -2.95614426   0.46786673
H   -1.21855237  -2.97593171  -0.98832372
C    1.73087495  -0.37119469  -4.76432143
H    2.27506772   0.54254764  -4.88191977
H    0.94564025  -0.41457524  -5.48987203
H    2.39210928  -1.20068646  -4.90436305
C    1.12611093  -0.43001706  -3.34925944
N    0.67583663  -0.47381298  -2.29568148
