19
Energy:   -383.77156387
Na  -0.34320314  -0.48753917  -0.70300495
O   -1.76347908  -0.46903741   3.07651026
H   -2.59393755  -0.91022435   3.25518501
H   -1.50829192  -0.08837209   3.91687047
O   -0.05019323  -2.08743350   0.97316865
H    0.34159486  -2.94817477   1.12101454
H   -0.37148369  -1.81894547   1.83393486
O   -1.53886579   0.89924572   0.71794048
H   -1.93693873   1.76871336   0.76031743
H   -1.73052539   0.50580325   1.56923448
O   -1.49325149  -0.51488631  -2.73551194
H   -2.03665125  -1.24874920  -3.02255515
H   -1.36252665   0.01017884  -3.52510010
C    4.02476884   1.85785285  -1.65780847
H    4.51467714   1.47311018  -2.52778728
H    4.65435483   1.72008959  -0.80367624
H    3.82800000   2.90109682  -1.79131174
C    2.69673163   1.10837799  -1.44285593
N    1.70794755   0.55035989  -1.28281400
