19
Energy:   -379.90151262
Na  -1.06272072   0.18874957   0.00996843
O   -1.48485644   2.29348386  -0.86193868
H   -1.47746144   3.12135177  -0.38150983
H   -1.66228139   2.54376832  -1.76864146
O    2.25587239   1.01578622   2.67403935
H    2.92632873   0.38854399   2.94475569
H    2.62824140   1.87165669   2.88631020
O   -3.00406369  -1.06932000  -0.14296367
H   -3.91203253  -0.77828184  -0.05857631
H   -3.06847159  -2.00697926  -0.32428816
O   -0.35461880   0.43973890   2.17658540
H   -0.75264030   0.32847242   3.03996857
H    0.56205745   0.64570591   2.35965396
C    2.16600676  -2.20189944  -3.07219667
H    3.00897780  -1.56450585  -3.23961657
H    1.69298640  -2.42052607  -4.00673036
H    2.49276908  -3.11298851  -2.61608025
C    1.16325910  -1.49332236  -2.14267225
N    0.41666788  -0.96575451  -1.45059908
