19
Energy:   -381.07967317
Na   0.47581064  -0.94111295   0.23956735
O    0.28799341   0.76920197   1.78978370
H    0.80668586   1.55178616   1.60336492
H    0.00720920   0.87820062   2.69836026
O    0.55541997  -3.12726331   0.99688235
H    1.12606214  -3.54896560   1.63935145
H   -0.11895172  -3.78026742   0.80969177
O    2.08981913   0.11706793  -1.13592460
H    2.35307381   1.02104075  -0.96340803
H    2.63377452  -0.15435659  -1.87529806
O    1.84732631   2.91529595   0.96771299
H    1.45694933   3.70818550   0.60006666
H    2.61566756   3.22594118   1.44665256
C   -3.98215109  -0.49333221  -2.14406931
H   -3.84959821   0.11148265  -3.01672555
H   -4.61475276   0.01767690  -1.44866734
H   -4.43346451  -1.42344693  -2.41993505
C   -2.61289825  -0.76061519  -1.49191407
N   -1.59342727  -0.95961952  -1.00635485
