19
Energy:   -380.83277293
Na  -0.01303988   0.65166696  -0.27346704
O   -1.68859564  -0.36184073   0.89071548
H   -2.48885364  -0.86320521   0.73434209
H   -1.57421394  -0.38256789   1.84083077
O   -0.32056984   2.89315292  -0.83728743
H    0.33538888   3.58849676  -0.78782065
H   -1.10796859   3.32879990  -1.16354922
O    1.55201259   0.55607999   1.46038338
H    1.34240113   0.59379844   2.39358872
H    2.49269974   0.38124654   1.43258403
O   -1.19165016  -0.41804856   3.58375081
H   -1.72701955   0.02546412   4.24170822
H   -0.90851955  -1.22687764   4.01020647
C    1.28944109  -2.21625709  -4.23198702
H    2.23342605  -1.91220528  -4.63366485
H    0.53612399  -2.12997466  -4.98694912
H    1.35184445  -3.23314757  -3.90497226
C    0.92520708  -1.31448285  -3.03794480
N    0.65401830  -0.64307094  -2.14892610
