19
Energy:   -380.52356911
Na  -0.46051953  -0.04838056   0.49526331
O    0.35675328  -2.04018214  -0.30854848
H    1.00958453  -2.70787434  -0.09823840
H    0.07327131  -2.25334733  -1.19761002
O   -1.82271062  -0.49450408   2.32444502
H   -2.28148867   0.12568356   2.89112115
H   -2.05364098  -1.35514326   2.67402079
O   -0.59423545  -2.49675697  -2.87029602
H   -0.03792376  -2.41559676  -3.64499737
H   -1.22478340  -3.17993165  -3.09814129
O   -1.58729426   0.86736121  -1.30196861
H   -2.02769914   0.37572822  -1.99520190
H   -1.67707475   1.78376247  -1.56346437
C    3.05948757   3.37174072   1.80682159
H    3.00323885   4.22188040   1.15952042
H    4.01698957   2.90593056   1.70141807
H    2.92542631   3.68601445   2.82080319
C    1.95530259   2.36627250   1.43077746
N    1.13318668   1.61765571   1.15079552
