19
Energy:   -382.63218914
Na  -0.35141064   0.53680756  -0.26923772
O    1.56003964  -0.34144065  -1.28602613
H    2.42716258  -0.15243216  -0.92741010
H    1.72083249  -0.98478402  -1.97630638
O   -1.56613754   2.05844857  -1.49639651
H   -1.20521906   2.84660777  -1.90232110
H   -2.49275362   2.06778254  -1.73624512
O    0.96951794   1.30246771   1.52786997
H    0.82606215   1.58652094   2.43062467
H    1.91708469   1.18462840   1.46106425
O    3.83161455   0.39230326   0.24931218
H    4.38898436   1.17019397   0.22793936
H    4.39664881  -0.29834092   0.59569165
C   -3.94200503  -2.84081726   0.81439839
H   -4.92741329  -2.44991553   0.66925510
H   -3.81108653  -3.10518576   1.84292585
H   -3.80911181  -3.70901575   0.20327658
C   -2.90344358  -1.77337181   0.42254342
N   -2.13018737  -0.97861015   0.13078958
