19
Energy:   -381.08330837
Na   0.59283750  -0.03762788   0.18336942
O   -1.08261144   0.13896518  -3.69527989
H   -0.73985446  -0.24385350  -4.50286849
H   -1.91710221   0.53183036  -3.95123683
O    2.33834426  -1.56305362   0.01871617
H    2.31524796  -2.39049104  -0.46195599
H    3.22881821  -1.51210103   0.36612346
O   -0.89889947  -1.06046618  -1.23492346
H   -1.58093773  -1.73063045  -1.19092898
H   -0.97390020  -0.69934684  -2.11821252
O    0.38923828   1.89979684  -1.17618010
H    0.60233431   2.82965205  -1.09749586
H    0.16617466   1.78200685  -2.09954351
C   -0.68283911   0.50565842   5.06697550
H   -0.98560017   1.51980471   5.22427526
H    0.12058839   0.26608151   5.73181100
H   -1.50938337  -0.14682944   5.25666802
C   -0.21381780   0.32995199   3.61069728
N    0.13538989   0.19913056   2.52643195
