19
Energy:   -382.77514223
Na  -0.09685489  -0.66047572   0.96657034
O   -0.08254499  -1.18517504   3.23030684
H    0.16578902  -0.56893844   3.91937470
H   -0.16852504  -2.02589577   3.67978201
O    1.31488368  -1.37273781  -0.72480143
H    2.24702902  -1.50301479  -0.89905643
H    0.88666003  -1.55448012  -1.56135752
O   -0.07100538  -1.69064990  -2.98546200
H   -0.04308404  -2.47696006  -3.53059371
H   -0.01993362  -0.96520884  -3.60784356
O   -1.86581518  -1.13781394  -0.47134219
H   -1.59373559  -1.12645842  -1.38898897
H   -2.80973095  -1.29358569  -0.50280673
C    0.54068399   4.36170038   0.82788823
H   -0.01655759   4.76504306   0.00831719
H    1.57967569   4.57986802   0.69447830
H    0.19864244   4.80031419   1.74195858
C    0.33960771   2.83591138   0.88389055
N    0.18989728   1.69989211   0.92558682
