19
Energy:   -383.24068855
Na   0.18875119  -0.66383596  -0.06603624
O   -0.86593683   0.59680711   1.54943220
H   -1.81785383   0.51967520   1.48511637
H   -0.72373506   1.24431663   2.23989722
O    1.27215946  -2.44565764   0.94293919
H    2.04614675  -2.89271980   0.60043232
H    1.12353184  -2.84559543   1.79978891
O   -3.58018855   0.38981542   1.03563243
H   -3.95119961   1.25354252   1.21607117
H   -4.22337023  -0.22584027   1.38708264
O   -1.82841783  -0.89796360  -1.22506932
H   -2.60906975  -0.49424948  -0.84582093
H   -2.13230970  -1.28200813  -2.04749949
C    4.15179787   1.92840913  -1.95839983
H    5.02336653   1.67123635  -1.39348354
H    4.00054385   2.98692082  -1.91872222
H    4.28387715   1.62488566  -2.97591035
C    2.92498565   1.21192576  -1.36410751
N    2.01156819   0.67847133  -0.92162986
