19
Energy:   -380.40436178
Na   0.02033952   0.34841287  -0.19727824
O   -3.38567852  -2.12062605   0.44556898
H   -3.45744970  -2.86676956   1.04084254
H   -4.27504782  -1.98944738   0.11686509
O   -1.21390108   0.82900530   1.73915840
H   -0.94137983   1.19073946   2.58243322
H   -2.12735924   0.57508267   1.87087523
O   -0.39515183   1.76365532  -1.99000288
H   -0.81926029   1.52224364  -2.81346160
H   -0.20635399   2.69752544  -2.08205627
O   -1.03507434  -1.59438768  -0.87163969
H   -0.88062646  -2.32379257  -1.47192813
H   -1.85656437  -1.81477618  -0.43253276
C    5.00699010   0.89041328   0.51256072
H    5.39963018   0.04615548   1.03978241
H    5.20752764   1.78263533   1.06809974
H    5.47073555   0.95740380  -0.44939121
C    3.48580827   0.72496406   0.33868609
N    2.35321925   0.60177960   0.20922852
