19
Energy:   -381.45267092
Na   0.69063351   0.24131548   0.21141302
O   -1.29997355   1.59441061   0.35190370
H   -1.97159815   1.40703367   1.00767967
H   -1.66439246   2.31171145  -0.16666184
O    2.84181965   0.95666466   0.86488457
H    3.38045742   1.60790429   0.41545364
H    3.37314149   0.67960077   1.61131913
O   -2.80407061  -0.05127952   2.54154127
H   -3.08157534   0.48796977   3.28210401
H   -3.61088154  -0.45737894   2.22472707
O   -0.24850883  -1.12005407   1.86883283
H   -1.12396502  -0.82776478   2.12255567
H   -0.05208421  -1.83901675   2.46945075
C    1.29016831  -1.29264624  -4.58189490
H    1.43060432  -0.52236473  -5.31117148
H    0.43255597  -1.87747851  -4.84145486
H    2.15577715  -1.92108303  -4.55567228
C    1.07653609  -0.65507415  -3.19644800
N    0.91747719  -0.18037275  -2.16491981
