19
Energy:   -381.57711605
Na  -0.08795224  -0.54820506  -0.33502178
O    0.26832633  -2.52402302  -1.49258098
H   -0.24795319  -2.87761961  -2.21691291
H    0.94386968  -3.18359084  -1.33496333
O   -1.86601183  -0.52366414   1.15888419
H   -2.81685030  -0.60332811   1.08278098
H   -1.71435081  -0.33495767   2.08496229
O    1.56568360  -0.13511311   1.19813793
H    2.41117006   0.31266202   1.22783513
H    1.33375068  -0.27112182   2.11680033
O    0.60929255  -0.55315954   3.73282635
H    0.80628276   0.09384078   4.41018689
H    0.52572728  -1.38000267   4.20777807
C   -0.40696246   3.10943928  -3.81808718
H   -1.30624271   3.01261098  -4.38976847
H    0.43918935   3.03152488  -4.46836063
H   -0.39530861   4.06162742  -3.33013122
C   -0.34726995   1.99049704  -2.76167578
N   -0.30282616   1.15739367  -1.97512947
