19
Energy:   -380.58745511
Na  -1.46690197   0.63767287   0.50085663
O   -0.71299962  -0.67507000  -1.23145363
H   -0.98043543  -1.08185980  -2.05560895
H    0.20357856  -0.92943059  -1.12460336
O   -3.64741964   0.21088039   1.21651835
H   -4.38864867   0.79681872   1.36977519
H   -4.02849957  -0.66706953   1.23114251
O   -1.56271875   2.87369615  -0.06365017
H   -1.74238513   3.64215155   0.47803991
H   -1.47278751   3.22126924  -0.95097038
O    0.21726730   0.07485985   2.03967492
H    0.13171076  -0.03138084   2.98710557
H    1.09108506  -0.26014131   1.83855657
C    4.48704970  -1.83401166  -1.53630874
H    5.00322708  -0.94186832  -1.82360884
H    4.40490132  -2.48615148  -2.38062171
H    5.03133357  -2.32585142  -0.75736856
C    3.07900799  -1.47155510  -1.02872252
N    2.03065693  -1.20168971  -0.65080151
