19
Energy:   -382.58217791
Na   0.59956091  -0.12211103   0.23505757
O   -0.57143764   1.87030661   0.08154601
H   -0.43999098   2.37292292  -0.72240079
H   -1.26260842   2.34026198   0.54808299
O    2.56090519  -0.17090361   1.48995332
H    3.36505636   0.29387999   1.25854686
H    2.80542747  -0.71577939   2.23798480
O    0.53076488  -0.15577552  -2.13336729
H    0.55455916  -0.78853913  -2.85119450
H    0.42826635   0.69261253  -2.56460227
O   -0.06308058   2.99566359  -2.37167407
H   -0.76812251   3.32099655  -2.93141168
H    0.65199372   3.61896975  -2.49969757
C   -2.07710568  -3.80445678   2.42677516
H   -2.64076530  -4.27839643   1.65052184
H   -2.74108078  -3.46979229   3.19621382
H   -1.37839789  -4.50300263   2.83755517
C   -1.31584495  -2.59861868   1.84536602
N   -0.74905174  -1.70081741   1.41248049
