19
Energy:   -382.10936666
Na  -0.31843550  -0.64664092  -0.54581169
O    0.05822996  -1.02009333   3.53882216
H    0.00343029  -1.74099331   4.16614350
H    0.31188240  -0.26225762   4.06567824
O   -1.06439926  -1.88510684  -2.35616405
H   -1.54948422  -2.70977443  -2.32704710
H   -1.00452032  -1.67467486  -3.28802495
O    1.12293973  -1.41262591   1.07638682
H    0.83404049  -1.32580593   1.98480928
H    2.01997997  -1.74047938   1.14012668
O   -1.97752285  -0.00051919   0.98405877
H   -1.97742368  -0.35043681   1.87500742
H   -2.73044113   0.58997079   0.95822311
C    1.52798667   3.54939838  -2.67224167
H    0.88086423   4.34148956  -2.35803747
H    1.51231202   3.47824558  -3.73975780
H    2.52566962   3.75203754  -2.34290110
C    1.04600054   2.22013475  -2.06203878
N    0.68713995   1.23043756  -1.60771499
