19
Energy:   -383.64560227
Na  -0.32545171  -0.62021104   0.70420854
O   -0.26472531  -2.26926708   2.36977118
H   -0.82875053  -3.01044862   2.59058179
H    0.45464485  -2.31923029   2.99924882
O   -0.23722046  -1.35035817  -1.50552675
H   -0.04652074  -2.15009163  -1.99572249
H   -0.77256526  -0.82582327  -2.10092656
O   -2.03801913   0.48366361  -2.70817485
H   -1.66838215   1.21828809  -3.19799851
H   -2.88750133   0.32415289  -3.11947542
O   -2.21253027   0.70735917   0.36058960
H   -2.46950143   0.74359685  -0.56075968
H   -2.76627206   1.35943634   0.79000460
C    3.93134535   1.98703470   1.19789487
H    3.68638560   2.92889627   1.64263263
H    4.30219861   2.14622244   0.20692251
H    4.68113093   1.49949045   1.78527998
C    2.67101980   1.10404444   1.13866877
N    1.73265014   0.44661806   1.09457225
