19
Energy:   -382.02752734
Na   0.37282970   0.33710061  -0.21370659
O   -0.47046152   1.90105470   1.28346781
H   -0.78579319   2.80302713   1.34041979
H   -0.63355960   1.53448024   2.15252133
O    2.44711869   1.11174943  -0.91344665
H    2.86424072   1.86695625  -0.49883392
H    3.05446947   0.85254629  -1.60639009
O    0.30356898  -1.37638349   1.36268823
H    0.18165630  -1.25263879   2.30399392
H    0.40704420  -2.32201546   1.25636372
O   -0.79376675   0.56964150   3.67277569
H   -0.16131623   0.63412722   4.38837319
H   -1.61680967   0.33320857   4.10048081
C   -1.24805071  -1.77723711  -4.50925279
H   -2.20878697  -1.43449633  -4.83238555
H   -1.28338674  -2.83377647  -4.34379878
H   -0.51959029  -1.55823425  -5.26177008
C   -0.86288898  -1.06509988  -3.19924859
N   -0.57611857  -0.53488135  -2.22389092
