19
Energy:   -382.83525690
Na  -0.20668242   0.36314356  -0.36740137
O   -1.70305115   1.31926973  -1.82863789
H   -2.34741611   1.98962655  -1.60137728
H   -1.87091891   1.12806405  -2.75140149
O    1.41125660   1.79060938   0.57772315
H    2.22930128   2.22888479   0.34331022
H    1.29166944   1.98668992   1.50696111
O   -1.30446716  -0.15498868   1.55218690
H   -0.96041685   0.37585454   2.27056473
H   -1.85389411  -0.81137110   1.98058391
O    0.06963195   1.34524364   3.41676501
H   -0.25180082   2.12493615   3.86952587
H    0.38185201   0.77253662   4.11730562
C    1.24624298  -3.59129564  -3.10711443
H    2.29935995  -3.75596542  -3.01368694
H    0.99156576  -3.48924886  -4.14134122
H    0.71689819  -4.42225977  -2.68975153
C    0.85894672  -2.30519587  -2.35375595
N    0.57058705  -1.34763613  -1.79284633
