19
Energy:   -383.55026436
Na   0.40905024   0.03897757  -0.46707969
O    0.57524437  -1.69393034   1.04302471
H    0.16480784  -2.51850086   1.30351877
H    0.98589855  -1.36689020   1.84342445
O    1.80351821  -0.42633947  -2.25611191
H    1.60573739  -0.77273126  -3.12624255
H    2.74932510  -0.27939941  -2.26558812
O    1.09326300   1.73224170   0.93925274
H    1.46356299   1.49750849   1.79014056
H    1.10247925   2.68934564   0.92930495
O    1.60812367  -0.26699890   3.18466835
H    1.00988757  -0.30802768   3.93076624
H    2.48091908  -0.32462634   3.57343448
C   -4.20527636   0.44059494  -2.46798887
H   -4.74366921  -0.39938849  -2.08138681
H   -4.15267882   0.37040787  -3.53438766
H   -4.70933804   1.34391567  -2.19443342
C   -2.78061973   0.45045352  -1.88330409
N   -1.71989811   0.45779368  -1.44797970
