19
Energy:   -388.40111628
Na   0.59258297   0.15891996   0.47697985
O    1.89125028  -0.70301149  -1.27159079
H    2.09514557  -1.62192585  -1.44553032
H    2.20662897  -0.23652762  -2.04564565
O    2.51203829   0.56716461   1.77611058
H    2.62961177   0.93676627   2.65121225
H    3.39963549   0.36699321   1.47889944
O    0.16432843   2.44506580   0.29239235
H    0.71437541   3.19276162   0.52612535
H   -0.64711182   2.83603971  -0.03154588
O   -0.14994534  -1.46022547   1.98394879
H   -1.02419174  -1.84974502   1.99807665
H    0.30700235  -1.86941509   2.71879198
C   -3.61828554  -0.70277609  -2.29476223
H   -4.27177145  -1.38985770  -1.79900502
H   -3.28537995  -1.12984737  -3.21762900
H   -4.14256598   0.20883769  -2.49221966
C   -2.40231546  -0.41127064  -1.39585104
N   -1.49697046  -0.19423158  -0.72657079
