19
Energy:   -384.61044436
Na  -0.46299252  -0.32960966   0.51029602
O    3.64515749  -1.12184207  -0.12894776
H    4.27953722  -0.74181839  -0.73671105
H    4.10673314  -1.85973199   0.26942171
O    1.47771322   0.50742806   1.42073920
H    1.73678432   1.19590622   2.03320294
H    2.30264818   0.19065279   1.05281584
O   -1.80205114  -1.49183158   1.96378194
H   -2.66932634  -1.16712536   2.20592127
H   -1.71446109  -2.31880688   2.43777738
O    0.96532225  -1.41408706  -0.99297753
H    1.90774496  -1.38493979  -0.82798750
H    0.88582236  -1.80854676  -1.86148957
C   -3.45643691   2.93591709  -1.87513203
H   -3.96694302   2.49091440  -2.70353791
H   -2.74690170   3.65100799  -2.23583117
H   -4.16532342   3.42564281  -1.24066554
C   -2.72262207   1.84235105  -1.07686571
N   -2.17626356   1.02814143  -0.48252016
