19
Energy:   -380.99675246
Na  -0.27644732   0.30656201  -0.42586644
O   -1.67812697   1.34566057  -1.96557138
H   -1.34060241   1.93330269  -2.64157860
H   -2.61321911   1.27223294  -2.15647169
O    0.77178643   1.30843110   1.42326909
H    0.53585875   1.12516998   2.33265644
H    1.52293106   1.89857406   1.48446449
O   -1.84467939  -0.73425671   0.87493311
H   -1.80326704  -0.46942660   1.79383565
H   -2.49188448  -1.43927193   0.85729880
O   -1.60115972   0.03407411   3.50820763
H   -2.27944845   0.60239820   3.87312401
H   -1.29134595  -0.47939875   4.25425916
C    3.52827821  -1.65929239  -3.18538177
H    4.08200036  -0.86927720  -3.64816462
H    3.09637277  -2.28208948  -3.94068341
H    4.18359599  -2.24317743  -2.57338835
C    2.40978349  -1.05960239  -2.31306218
N    1.57701333  -0.61310593  -1.66358059
