19
Energy:   -380.44379797
Na  -0.35190262  -0.46766186   0.20711358
O    1.88253404  -0.42383042   0.71245811
H    2.70331563  -0.87724901   0.52020563
H    2.13839284   0.30780315   1.27413456
O   -0.94801314   1.56856362   1.29467874
H   -1.67805011   2.17682923   1.17939292
H   -0.46445034   1.91353766   2.04527303
O   -1.36220489  -2.33916383   1.20097469
H   -2.23417653  -2.69592929   1.03181291
H   -0.99118731  -2.91790133   1.86703828
O    2.43384605   1.72810295   2.42720779
H    2.80885417   1.54555453   3.28876268
H    2.86433465   2.53481040   2.14412739
C   -1.61713411  -0.44341365  -4.69344040
H   -0.84680404   0.05729918  -5.24187310
H   -2.54390726   0.07457261  -4.82640972
H   -1.71495138  -1.44704836  -5.05127870
C   -1.25118860  -0.46509515  -3.19770854
N   -0.97872553  -0.48123801  -2.08406818
