19
Energy:   -383.65928035
Na   0.58695534  -0.33711768  -0.70914897
O    1.12137242  -0.70926439   3.22293018
H    1.79875000  -1.16623870   3.72149405
H    0.56079870  -0.31103356   3.88881392
O    0.02850054  -1.83317307   0.95180687
H   -0.37516207  -2.66334619   1.20498854
H    0.41243378  -1.49626557   1.76132552
O    1.43901127  -0.72133063  -2.83472730
H    1.16255685  -0.25244407  -3.62209647
H    2.03696121  -1.39665207  -3.15508439
O    1.96332978   0.84090480   0.73095698
H    1.78990737   0.85251094   1.67224430
H    2.68287415   1.46082280   0.61183767
C   -3.79961779   1.88142541  -1.70690933
H   -4.35369507   1.83407013  -0.79276709
H   -4.29031453   1.29118427  -2.45238313
H   -3.74250869   2.89759006  -2.03713204
C   -2.37811606   1.33656917  -1.47439152
N   -1.31974342   0.93089893  -1.30127144
