19
Energy:   -380.94603219
Na   0.49439707  -0.02695459  -0.07785642
O   -1.36348433   3.32127046  -1.27461029
H   -0.89663467   3.83998495  -1.92975799
H   -2.11828340   3.85931996  -1.03583644
O   -1.27062942   0.58721442  -1.39625709
H   -1.40377547   1.53491916  -1.41522266
H   -2.03246164   0.22867903  -1.85155467
O    0.62087667   1.86631668   1.26741487
H    0.06913006   2.63827414   1.14136248
H    1.12003864   2.05525830   2.06200296
O    2.12876426  -0.58326536  -1.62667491
H    2.06997438  -0.39494972  -2.56332470
H    2.97011088  -1.02795723  -1.52363677
C   -0.12586024  -4.35335014   2.49068895
H    0.76035176  -4.93916668   2.36283178
H   -0.96709263  -4.89025843   2.10473991
H   -0.27578374  -4.15587089   3.53156549
C    0.02518075  -3.02168581   1.73210031
N    0.13763764  -2.03020119   1.16729658
