19
Energy:   -387.57664616
Na   0.32569167   1.30074292   1.11357127
O    1.44750793   0.34143484  -0.66592703
H    2.22597638   0.45782456  -1.21060321
H    0.97659534  -0.38592358  -1.07264919
O    1.57763646   1.17981419   3.06089822
H    1.41622235   1.59076060   3.91019227
H    2.36308568   0.64972321   3.19619390
O   -0.41117415   3.49144784   0.93479836
H    0.05599433   4.30449514   1.12699496
H   -1.25907764   3.77661019   0.59424887
O   -1.40847191  -0.19484301   0.79531732
H   -2.22845058  -0.48612393   1.19409326
H   -1.27070136  -0.79609981   0.06337375
C   -0.93147947  -3.72269636  -3.18751943
H   -0.47877303  -3.50498805  -4.13227345
H   -1.98875155  -3.82752618  -3.31434827
H   -0.52668960  -4.63405464  -2.79961438
C   -0.64395119  -2.57348028  -2.20353269
N   -0.42987332  -1.71783667  -1.47090984
