19
Energy:   -381.48667727
Na   0.14403371  -0.91641282   1.62384247
O   -1.32099656  -1.51172748  -0.06963899
H   -1.99518437  -2.14881675  -0.30590136
H   -1.26110676  -0.93273600  -0.82951656
O    0.30200203  -2.06938028   3.62529160
H    0.87037499  -2.81172299   3.83050205
H   -0.18764334  -1.91168304   4.43251576
O    1.88790883  -0.65279874   0.12089701
H    1.60762372  -0.15503869  -0.64715704
H    2.81597694  -0.82940785  -0.03315058
O   -0.43812911   1.31892392   1.43998858
H   -0.65236752   2.11055244   1.93360588
H   -0.45697767   1.59501302   0.52366364
C   -0.32837371   2.21414665  -3.88845274
H    0.36094783   3.03248006  -3.89660329
H   -1.32515341   2.58629850  -4.00173254
H   -0.10207057   1.54912651  -4.69556748
C   -0.21157092   1.45786833  -2.55203955
N   -0.12460594   0.89478475  -1.55701918
