19
Energy:   -381.83019459
Na  -0.29489542   0.65676916  -0.67785852
O    1.47980734   1.69865978   2.86173959
H    1.73952047   2.58849002   3.10045090
H    1.93909395   1.13857736   3.48751539
O   -0.88318839   1.07331726   1.51343528
H   -1.61936154   0.87652611   2.09270567
H   -0.16972501   1.31275958   2.10493274
O    2.01991312   0.95209818  -0.28004237
H    2.35223207   1.06933786   0.60993000
H    2.78916976   1.05920289  -0.83951056
O   -1.49397185   1.53626397  -2.47865500
H   -2.06297990   1.04650400  -3.07245367
H   -1.73083718   2.45274740  -2.62072816
C   -0.94487481  -4.32745372  -1.33627117
H   -0.63304723  -4.83636881  -0.44820069
H   -0.34809311  -4.65347650  -2.16238245
H   -1.97379328  -4.54743352  -1.53078278
C   -0.77171920  -2.80915817  -1.14549445
N   -0.64279698  -1.67871812  -1.00345251
