19
Energy:   -381.17538640
Na   0.37650786   0.46785071  -0.09242333
O   -1.93050695   1.22642499   0.15374804
H   -2.38629916   1.07147713   0.98107897
H   -2.52273776   1.78946279  -0.34473260
O    2.20039080   1.98251920  -0.02470727
H    2.47280524   2.73681085  -0.54726475
H    2.74140339   2.02869846   0.76358500
O    0.24010907  -0.64898991   1.93031874
H   -0.61658973  -0.55370428   2.34651541
H    0.74071511  -1.19738642   2.53437727
O   -2.29755543  -0.08720791   3.01598104
H   -2.42382459   0.47618784   3.77944235
H   -3.01328444  -0.72094365   3.06438396
C    1.51774153  -2.10265885  -4.27306610
H    1.60743851  -1.38599776  -5.06252891
H    0.74354367  -2.80152249  -4.51203550
H    2.44515575  -2.62359318  -4.15718094
C    1.16812728  -1.37851655  -2.95967819
N    0.90782358  -0.83935970  -1.98180119
