19
Energy:   -380.61172852
Na  -0.71775592   0.23404880  -0.71520101
O   -1.23012416   1.37837796  -2.65617156
H   -2.07487935   1.71227081  -2.95805909
H   -0.60607624   1.66719820  -3.32203860
O   -1.15079555   0.29217463   3.46645666
H   -1.83042280   0.62922174   4.05018424
H   -0.47224057  -0.03952168   4.05448094
O   -1.97394419  -1.51559775   0.20993733
H   -2.11087094  -1.61860819   1.15167602
H   -2.41685937  -2.26885466  -0.18078254
O   -0.48611371   1.58706370   1.13726934
H   -0.13482021   2.44995998   1.35689342
H   -0.69521200   1.19069813   1.98308497
C    3.96648217  -1.39969326  -1.74691646
H    4.63993508  -0.63494310  -1.42054468
H    4.10904175  -1.57814724  -2.79225375
H    4.15836263  -2.30028400  -1.20192352
C    2.51586717  -0.94734326  -1.49652558
N    1.43581836  -0.61054813  -1.31009819
