19
Energy:   -381.72804543
Na   0.46813973   0.10159851   0.17984457
O    2.66631938  -0.12153566   0.79512013
H    2.98674646   0.05829269   1.67898669
H    3.41489955  -0.51072348   0.34302234
O   -0.30867462  -1.40992849  -1.38631386
H   -0.38302015  -2.35094356  -1.54504392
H   -0.50299618  -1.00766462  -2.23286850
O   -0.17305577   1.83455372  -1.43062070
H   -0.20085611   2.79019389  -1.47764029
H   -0.42475005   1.54372572  -2.30714845
O   -0.69181140  -0.11040945  -3.82630278
H   -1.41298101   0.05152755  -4.43451545
H    0.07090902  -0.24491023  -4.38879629
C   -1.39437328  -0.18703161   4.84744430
H   -1.13749746  -1.14365490   5.25215021
H   -2.45848931  -0.10702264   4.76899222
H   -1.02528747   0.58352397   5.49158626
C   -0.76375735  -0.03438602   3.45079729
N   -0.29423512   0.07926555   2.41093011
