19
Energy:   -380.38655443
Na   0.06799689  -0.03604978   0.61533454
O    1.13230852  -2.01246513  -0.08350677
H    0.80966186  -2.91236120  -0.03536071
H    1.99210215  -2.08761047  -0.49743906
O    0.55577029   0.46707044   2.82910123
H    0.30373212  -0.00223514   3.62437532
H    1.03020228   1.23626247   3.14452120
O    0.99381763   1.54545227  -0.75934306
H    0.79733408   2.40166210  -1.13951512
H    1.79214803   1.26239601  -1.20519010
O    3.27170676   0.53859593  -1.92724200
H    3.34980758   0.38199519  -2.86830965
H    4.17298118   0.65984247  -1.62851881
C   -4.93838196  -0.34734032  -0.09613785
H   -5.40647318  -0.95869587   0.64685285
H   -5.11563469  -0.76504882  -1.06515806
H   -5.34638278   0.64090601  -0.05366875
C   -3.42235020  -0.28859319   0.16805241
N   -2.29359565  -0.24485329   0.36475406
