49
Energy:  -1899.60492809
O   -1.79977851  -0.89809776   0.31997187
H   -2.61416021  -0.39628922   0.35464875
H   -2.07102542  -1.80561908   0.45803713
O   -4.37486018   2.69385616  -1.49293472
H   -4.93363180   2.46816207  -2.23662034
H   -4.76234279   3.49274770  -1.13535763
O    1.44005067   2.98106282   2.12698501
H    1.31785860   3.80898137   2.59158356
H    1.67871363   2.35513852   2.81071787
O    2.61307733  -1.87758215  -2.44929091
H    2.15620360  -1.58715784  -3.23869066
H    3.38397837  -2.34196991  -2.77530846
O    0.48409854  -2.32758114  -0.65439730
H    1.16196914  -2.66115906  -1.24214646
H   -0.02479437  -3.10105290  -0.41149553
O   -0.36384229  -3.06668792   3.23101691
H    0.25380910  -3.71881022   3.56188714
H   -0.96355956  -2.91213699   3.96086968
O    3.71160408   1.75006966   0.93056320
H    3.15136142   2.49066917   1.16266745
H    4.57151831   2.13982176   0.77285251
O   -0.19103646   1.58331215   0.44065906
H   -0.71593635   2.16428289  -0.10996327
H    0.27533498   2.17185434   1.03424782
O    0.86218738  -0.80114859  -4.34794578
H    0.38305938  -1.42509521  -4.89325195
H    1.24719518  -0.18445726  -4.97059548
O    0.65245586  -0.85794931   1.87613721
H    0.33212195  -1.58451958   2.41065913
H    1.29792564  -0.41886834   2.43004020
O    2.12325721   0.02671632  -0.48324092
H    2.78627465   0.60231038  -0.10201762
H    2.60077688  -0.49550784  -1.12782508
O   -1.61275940   2.58869485  -1.73862151
H   -1.36973024   3.38116451  -2.21732863
H   -2.56673560   2.63123061  -1.67265210
O   -0.34449640   0.13156842  -2.01703108
H   -0.01541649  -0.14810888  -2.87126692
H   -0.83890481   0.93048125  -2.20014433
O    2.52775694   0.61608501   3.21069208
H    3.21594556   0.84510811   2.58605083
H    2.99194214   0.46279593   4.03365405
O   -1.55025320  -3.63411579   0.76318186
H   -1.23900680  -3.64293225   1.66832262
H   -2.10132493  -4.41346428   0.69129496
O   -3.99803953   0.65145402   0.35431797
H   -4.78144222   0.56403823   0.89733782
H   -4.21331155   1.34673020  -0.26735786
Ca   0.14431461  -0.38078361  -0.06900139
