49
Energy:  -1900.34488621
O    2.17838220  -2.74949548  -1.58943330
H    2.53579085  -2.29796144  -2.35402986
H    2.63615903  -3.58993855  -1.57133160
O   -2.79026906  -3.34608133  -1.26608095
H   -2.84673599  -4.16357226  -0.77135686
H   -3.21030091  -3.54279315  -2.10340381
O   -0.69297781   0.17531149   3.88548515
H   -1.38164158   0.09329446   4.54521787
H    0.10485319  -0.10236740   4.33558734
O   -3.54769563  -1.00548363   0.04517435
H   -3.48187813  -1.86521562  -0.37047071
H   -4.45714747  -0.94970569   0.33846264
O   -0.25338868   2.64332525   2.67558109
H   -0.41216574   1.89867041   3.25567665
H   -0.28382633   3.40711614   3.25171378
O    2.85760148  -0.98593464  -3.64219347
H    2.67301717  -1.25732906  -4.54136283
H    3.76467412  -0.68108418  -3.66493704
O    1.69807289  -0.72841226   0.29824288
H    2.16986022  -1.47214937  -0.07659533
H    2.15014658  -0.54818760   1.12248817
O   -1.81673014   0.67818582  -1.32757534
H   -2.64484401   0.29018129  -1.04488869
H   -2.07295114   1.45581978  -1.82342620
O   -2.27572617   3.02838152  -2.74295121
H   -2.57405334   2.97817787  -3.65108795
H   -2.80755407   3.72253341  -2.35366456
O   -1.08819788  -0.43597804   1.22074411
H   -2.00986521  -0.68434401   1.14950135
H   -0.95316286  -0.28030452   2.15549710
O    1.66291539  -0.56555480   5.14803352
H    1.76536919  -1.45000980   5.49942278
H    1.97055469   0.00849630   5.84950002
O   -0.42382763  -1.88598861  -1.23547594
H   -1.18557015  -2.46143188  -1.30508362
H    0.32133852  -2.44728726  -1.44972598
O    2.85170776  -0.17358185   2.66080717
H    3.74536682   0.13474714   2.81093569
H    2.49885616  -0.32300850   3.53796125
O    0.95689193   0.49030454  -2.24980666
H    1.61293756   0.06190426  -2.79963315
H    0.97201966   1.40619027  -2.52757694
O    0.48169340   3.20827810  -2.32300229
H   -0.43436643   3.33230125  -2.57136593
H    0.92915411   3.98394964  -2.66115080
O    0.35307095   1.90546553   0.17135889
H    0.19491435   2.27648399   1.03943932
H    0.51058937   2.66515426  -0.38925935
Ca  -0.03812912   0.01231311  -0.49849995
