49
Energy:  -1900.93682866
O    0.00991889  -1.83433071   0.56252208
H   -0.76100934  -2.28315033   0.21544504
H    0.75239387  -2.30426649   0.18288658
O    1.62527018  -2.56671147  -3.43275541
H    1.51889709  -3.43537860  -3.82048473
H    2.18021264  -2.09350387  -4.05271129
O    0.45649989  -0.34028599   3.07780003
H    0.06405593  -0.96126633   3.69147991
H    1.01856017   0.21172913   3.62149056
O   -2.12625652  -2.82423646  -0.80705140
H   -2.84219190  -2.20418341  -0.66847797
H   -2.55297483  -3.68049847  -0.83801424
O    0.65146329   2.10310234   1.58288418
H    1.16417195   2.35197614   2.35192482
H   -0.00732062   2.79260006   1.50024945
O    2.34223042  -2.50373347  -0.73123937
H    2.17627578  -2.53013296  -1.67357369
H    2.93641216  -3.23700290  -0.57156516
O    2.34249946  -0.18855299   0.85062654
H    2.67502275  -0.87486583   0.27215027
H    3.12096450   0.15155238   1.29170744
O   -1.71743732   0.48772570   1.23350200
H   -2.44613026   0.07584076   0.76918612
H   -1.98464009   1.40097639   1.33746209
O   -2.83480668   0.60597555  -2.78776332
H   -2.15965871  -0.03041235  -3.02317255
H   -3.38237329   0.67531673  -3.56980836
O   -3.64257720  -0.56365908  -0.40910245
H   -3.53022306  -0.11801189  -1.24874939
H   -4.58491354  -0.53099931  -0.24427710
O    2.19277655   1.66543803   3.85497480
H    3.07201990   1.48422467   3.52282317
H    2.33861506   2.12193617   4.68357146
O   -0.72141593  -1.26824325  -2.63540818
H   -1.20279807  -1.96177190  -2.18427507
H   -0.00058289  -1.72166619  -3.07248852
O    4.41707976   0.87963894   2.36089738
H    5.04351408   0.30316542   2.79849328
H    4.95381490   1.58056940   1.99097341
O    0.14866821   0.63519427  -0.91998744
H   -0.23703074   1.44827660  -1.24612434
H   -0.06363447  -0.01617744  -1.58847404
O   -1.41733371   2.74103419  -1.70102502
H   -2.02177164   2.15037757  -2.15048178
H   -1.25952204   3.44616666  -2.32881123
O   -1.79761517   3.23284638   1.01777401
H   -1.81596648   3.28912087   0.06240588
H   -2.32983836   3.97204171   1.31198582
Ca   0.31299556   0.13940348   1.07256706
