49
Energy:  -1900.40741998
O   -4.18940398  -0.96480300  -0.47856570
H   -4.74245708  -1.12806846  -1.24257388
H   -4.62019743  -1.43596390   0.23463572
O    1.99725405  -0.33791994   3.51078119
H    2.59836393  -0.81279964   4.08470455
H    2.40915981   0.51715266   3.38661868
O    2.13252839   2.41289774   2.90961790
H    1.31917498   2.41834362   3.41425483
H    2.64769794   3.13114046   3.27698636
O   -0.08769329  -2.60012952  -2.67715708
H   -0.39218914  -2.75892862  -3.57063175
H    0.31387372  -3.42691942  -2.40996007
O   -3.46492371   1.68737258   0.01188943
H   -3.90803281   0.85694142  -0.16209407
H   -4.17504093   2.31895757   0.12619509
O    0.67460932  -3.73141059   0.65467725
H    0.85936176  -4.21860932  -0.14827716
H    0.60521122  -4.40356549   1.33263267
O    0.88077601  -1.08654997   1.12419952
H    0.85321281  -2.03684043   1.01275373
H    1.33252942  -0.95569149   1.95788217
O    1.39559924   1.68918032   0.37992604
H    1.97267463   2.04353524  -0.29657114
H    1.74080504   2.04332234   1.19946752
O    0.14641114   3.55656866  -2.99968562
H    0.11421559   4.48717070  -2.77793094
H   -0.06535413   3.52470711  -3.93262300
O   -0.24879403   1.29320359   3.98176519
H   -0.66992237   1.40873117   4.83354929
H    0.36604578   0.57158337   4.11393218
O   -0.99414624   1.69348556  -1.27409575
H   -0.70091316   2.36655086  -1.88828572
H   -1.90419000   1.92171581  -1.08445624
O    1.12310623  -0.27927516  -1.70572106
H    0.99705403  -1.03910940  -2.27404721
H    1.75648670   0.26652745  -2.17172594
O    2.43122543   2.18069257  -2.15029394
H    3.27551223   2.46934237  -2.49683821
H    1.79110409   2.75866747  -2.56553066
O    1.07675044  -4.96252988  -1.80657224
H    1.98283612  -5.17024566  -2.03481497
H    0.60072354  -5.78141372  -1.94462833
O   -1.41882174  -1.12641150  -0.70317059
H   -1.17806920  -1.79933885  -1.33991139
H   -2.37124355  -1.19173652  -0.63347697
O   -1.22906603   0.88623422   1.46369495
H   -2.09533721   1.26984389   1.32713106
H   -1.03420212   1.05558311   2.38542206
Ca  -0.03090051   0.28109931  -0.09569673
