49
Energy:  -1899.21715567
O    0.14491582  -1.73556316   0.83905529
H   -0.74014334  -2.03503030   0.63115732
H    0.71553309  -2.27467727   0.29134757
O    1.63557193  -2.79301212  -3.39236129
H    1.49555101  -3.68449542  -3.71155324
H    2.17427029  -2.37861293  -4.06638594
O    1.32744769  -0.16190427   3.08685569
H    1.15099105  -0.75486088   3.81726472
H    1.97685768   0.45284232   3.42830136
O   -0.51671066  -1.35254480  -2.34211701
H    0.14991255  -1.84630592  -2.81965789
H   -1.30913474  -1.44574307  -2.87089864
O    0.81932884   2.25140031   1.59515456
H    1.49192871   2.58790970   2.18727169
H    0.10051389   2.87941541   1.66680611
O    2.32806701  -2.50959879  -0.71751703
H    2.14278262  -2.62119366  -1.64995905
H    2.92399275  -3.22749002  -0.50365602
O    2.40464907   0.02219973   0.41064771
H    2.63095659  -0.77251776  -0.07250946
H    3.24353204   0.45696396   0.56390332
O   -1.35528878   0.40851173   2.04561846
H   -2.04350311  -0.19590316   1.76763372
H   -1.79497227   1.25560637   2.11870024
O   -3.87252066  -0.13192389  -1.38073251
H   -3.61709458  -0.55836195  -2.19874226
H   -4.82836694  -0.09621566  -1.41699084
O   -2.69178085  -1.55871102   0.68750199
H   -3.13973178  -1.14222498  -0.04878001
H   -3.31794309  -2.20423282   1.01530423
O    3.02083447   2.01066093   3.29624138
H    3.75652244   1.89668613   2.69457304
H    3.38807756   2.49575372   4.03519290
O   -2.98349255  -1.42159893  -3.67319233
H   -3.37471379  -2.27561628  -3.85712753
H   -3.02984431  -0.95201500  -4.50600341
O    4.71594112   1.37678069   1.16609437
H    5.51211443   0.89306861   1.38600923
H    5.02054771   2.10996625   0.63141166
O   -0.27418313   0.69521153  -0.62045891
H   -0.33360864   0.02962381  -1.30580076
H   -0.96540968   1.32196887  -0.83403078
O   -2.49591289   2.24976644  -0.96653456
H   -3.08181210   1.51153863  -1.13378787
H   -2.70798415   2.88433698  -1.65106203
O   -1.86217602   3.08196225   1.62107806
H   -2.22740799   3.00901784   0.73930906
H   -2.35911320   3.79124843   2.02875245
Ca   0.52315708   0.25065929   1.22362166
