49
Energy:  -1900.90685323
O   -0.29641344  -1.72404438   0.69899555
H   -0.57580114  -2.31033032   1.40216208
H    0.02551532  -2.30862745   0.01280581
O    0.02429878  -1.20371194  -3.50485973
H   -0.16632241  -1.34820670  -4.43169125
H    0.96078316  -1.00718341  -3.48025478
O    0.57153850   0.57343143   2.26113678
H    1.42972315   0.94656857   2.46243169
H    0.21158714   0.32615259   3.11291141
O   -1.15862494  -3.18070915   2.90162400
H   -0.52408993  -3.73772704   3.35254333
H   -1.92752964  -3.73872912   2.78487158
O    1.59935162   0.24213331  -0.42172164
H    2.01482803  -0.12802838  -1.20056150
H    2.30497480   0.70568630   0.02932869
O    0.65644695  -2.98787487  -1.44895470
H    0.30001357  -2.63909481  -2.26598565
H    1.49785691  -3.37022882  -1.69808636
O    3.22897139  -3.51971167  -2.44789633
H    3.25764831  -4.09757585  -3.21044631
H    3.92542528  -3.84233588  -1.87597200
O   -2.14707349   0.42974253   1.31268505
H   -2.22434653   0.15321237   2.22580706
H   -3.00456492   0.79820077   1.10013196
O   -4.48617462   1.65361681   0.44188350
H   -4.91028684   2.32157036   0.98058446
H   -5.20649590   1.11073368   0.12149777
O   -1.51738903  -0.57250868   3.80816683
H   -1.85747342  -0.46925249   4.69693711
H   -1.45311844  -1.51948357   3.68431333
O    2.94728628   1.84354731   1.39625194
H    2.68042330   2.74770662   1.23038466
H    3.85174524   1.91250693   1.70191581
O   -2.61335026   2.50307776  -1.44060284
H   -3.38028111   2.33700108  -0.89245373
H   -2.93136838   3.08966883  -2.12690252
O    1.64496329   4.23467393   0.75861084
H    1.49354215   4.84911938   1.47677535
H    2.03175937   4.76786549   0.06411289
O    2.67596467  -0.80652849  -2.75591318
H    2.95163742  -1.71755517  -2.65458816
H    3.36602174  -0.40423406  -3.28337151
O   -1.15755943   0.13159152  -1.44645980
H   -0.86249528  -0.32483427  -2.23439665
H   -1.75057686   0.80980669  -1.76985795
O   -0.31843558   2.36391304   0.13664458
H    0.28246802   3.08600915   0.32028530
H   -1.01861962   2.76031998  -0.38184911
Ca  -0.29027937   0.30595373   0.40691279
