49
Energy:  -1900.02245989
O   -1.50174405  -0.83770175   0.44280747
H   -1.52590782  -1.72734357   0.79520696
H   -2.36520540  -0.47656848   0.64342929
O   -0.40114879  -1.48911815   3.62624423
H   -0.71405434  -2.23990551   3.12162527
H   -0.17470301  -1.85283401   4.48220272
O   -2.80721897   2.55682792  -0.49620614
H   -3.39641852   1.99673765   0.00913991
H   -3.34358273   3.31120993  -0.74003712
O    1.11566408  -0.37321995   1.64553218
H    1.93645046   0.01398322   1.94985977
H    0.73608306  -0.77576960   2.42662365
O    0.25347231   1.38786891  -4.18342590
H    1.04706548   1.89624955  -4.01612126
H   -0.10477060   1.76038151  -4.98911084
O    0.88796685  -1.28912162  -1.14442323
H    1.26588487  -1.24420398  -2.02271260
H    0.88044556  -2.22284521  -0.93386316
O    1.86145645  -0.82806931  -3.65308036
H    2.15127841  -1.42385335  -4.34393234
H    1.21853516  -0.26119417  -4.07915153
O   -3.72245675   0.54408257   1.24274818
H   -3.36562818   0.70182386   2.11683222
H   -4.63640291   0.30456939   1.39626599
O   -0.81655868   1.07267891  -1.69506360
H   -0.56370190   1.19759410  -2.60977201
H   -1.60019223   1.61162422  -1.58695138
O   -1.17733005  -3.27963772   1.61727952
H   -1.80556661  -3.98205338   1.78509760
H   -0.53013278  -3.67153426   1.03094800
O    1.83695337   1.39650833  -0.48560535
H    2.23001289   1.65320563  -1.31977713
H    2.52223842   1.55890817   0.16265581
O    2.80549217   1.79423156  -3.00567548
H    2.93130344   0.89814799  -3.31782545
H    3.56692191   2.27204946  -3.33453206
O    3.38287848   1.24933831   1.83963986
H    4.27121675   0.89286252   1.83617802
H    3.42952768   2.00429936   2.42623130
O    0.69912508  -3.94575557  -0.34377761
H    0.33936521  -4.54210857  -1.00041129
H    1.49547881  -4.37907240  -0.03671229
O   -1.87994400   0.87999986   3.35821394
H   -2.06534815   1.32558796   4.18483864
H   -1.47171476   0.05386182   3.61720561
O   -0.65863548   1.82226867   1.07957914
H   -1.30645654   2.40026462   0.67649057
H   -0.99679840   1.65997269   1.96022532
Ca   0.15052139   0.29748659  -0.05660044
