49
Energy:  -1901.37079983
O    0.29933027  -1.82287577   0.83055859
H    1.09730494  -2.33763783   0.95092587
H   -0.34917888  -2.25128840   1.38924487
O   -0.13675951  -0.76020137  -1.85273197
H    0.27256973  -0.43816503  -2.65583472
H   -0.79992279  -1.38134565  -2.15377364
O    0.52315442   0.85391929   1.87542889
H    0.44591665   1.80138243   1.98758853
H    0.06359019   0.48472736   2.62957071
O   -2.19332993  -2.52196682  -2.47789724
H   -2.74530272  -2.22759265  -3.20239826
H   -1.96442312  -3.42403366  -2.70174752
O   -1.28651866  -0.19579518   3.67015250
H   -1.22703391  -0.27964584   4.62181550
H   -1.57695191  -1.05741665   3.37100570
O    2.99563883  -2.56227831   0.79698933
H    3.31559414  -3.28683075   0.25950983
H    3.52139617  -2.60555444   1.59569969
O    4.15739051   1.52268018  -1.59418420
H    4.76112628   2.04735915  -1.06840198
H    4.71291560   1.10545839  -2.25262910
O   -0.41996858   3.42339610   1.49570938
H   -0.30621716   4.32803312   1.78712716
H   -1.28377072   3.17261545   1.82310330
O    1.96177372   2.78603606  -2.76127875
H    2.11195371   3.62304547  -3.20070231
H    2.82697711   2.51955639  -2.45040331
O   -1.84011845  -2.60622742   2.34102967
H   -2.49290533  -2.56480373   1.64218404
H   -2.04406024  -3.41399562   2.81235771
O    0.29266287   1.97873701  -0.75578897
H    0.01914428   2.72236455  -0.21872520
H    0.77864168   2.37205355  -1.48060519
O    1.13429309   0.40069980  -3.90578252
H    1.20626864   0.30607099  -4.85557027
H    1.41774808   1.29827380  -3.73186868
O    2.29282023  -0.10366633  -0.31864086
H    2.76936604  -0.87383674  -0.00884500
H    2.95916562   0.43555967  -0.74461150
O   -3.32689851  -2.05598085   0.02869029
H   -3.04778260  -2.35423038  -0.83697326
H   -4.27916629  -2.15266575   0.02032549
O   -1.78014612   0.17237445   0.33405428
H   -2.43495569  -0.51150623   0.19347159
H   -2.20615133   0.79508076   0.92311136
O   -2.62024519   1.88101343   2.29604773
H   -2.35548194   1.27972870   2.99217196
H   -3.47432481   2.21061296   2.57559023
Ca   0.25480353   0.06302487  -0.01732215
