49
Energy:  -1901.91763608
O   -2.05261068  -2.84296132   0.90376649
H   -2.42728976  -2.83284780   0.02300253
H   -2.16155158  -3.74644529   1.20055001
O    1.42090445   0.58015422  -1.46765926
H    1.04123940   0.37742388  -2.32263687
H    2.05772928   1.27220059  -1.64586647
O    0.10604097   0.05214236   2.39991040
H    0.12289726   0.84637445   2.93389832
H   -0.69204798  -0.40193154   2.67028565
O   -2.60041392  -2.66473228  -1.80882471
H   -3.20286507  -3.25536943  -2.26096652
H   -1.73771329  -2.88845762  -2.15800439
O    1.29013142   2.20961071   0.90022437
H    1.89447153   2.78090854   0.42627958
H    0.94497539   2.75746011   1.60517841
O    0.10118441  -2.73491884  -2.52545768
H    0.15948768  -1.98715708  -3.12017183
H    0.56298453  -3.43953460  -2.97986843
O    2.66340929  -0.36044842   1.01485550
H    2.90758146  -1.08508013   1.59063384
H    3.49506302   0.05356453   0.78425368
O   -0.24489886   2.67692367   3.17001583
H   -0.21991406   3.24368627   3.94098130
H   -1.17175769   2.63188219   2.93520565
O   -2.40718891   0.03478244  -2.34367985
H   -2.63369596  -0.88302823  -2.19351335
H   -3.19939970   0.41916815  -2.71902174
O   -2.41780264  -0.90024074   2.85027522
H   -2.50528587  -1.61805840   2.22312584
H   -2.81803751  -1.23321327   3.65350196
O    3.23764812   2.62029871  -1.09382640
H    3.58083290   3.35096628  -1.60820074
H    4.01464212   2.20220383  -0.72273498
O    0.01615946  -0.21893000  -3.67060711
H    0.06989314   0.03729350  -4.59131013
H   -0.88937758  -0.03306914  -3.42223186
O    5.00012570   0.93813297   0.28357379
H    5.63611556   0.46314427  -0.25134161
H    5.52392231   1.34757607   0.97221398
O    0.23896847  -1.67000332   0.00302447
H    0.36216216  -2.09916441  -0.84366078
H   -0.48469328  -2.14606554   0.41034534
O   -1.13923468   0.86431389  -0.06141388
H   -1.65500606   0.66945801  -0.84387341
H   -1.76225537   1.26923854   0.54200397
O   -2.66556565   1.77412495   2.02248615
H   -2.82842251   0.91317801   2.40781699
H   -3.51098619   2.22079354   2.06701844
Ca   0.76798141   0.26962516   0.45746611
