49
Energy:  -1899.70791740
O    0.55665117  -1.79082806  -0.08217980
H   -0.02522647  -2.54889273  -0.13684430
H    1.40440732  -2.11672976  -0.38438742
O   -1.31664916   0.05886735  -1.26435809
H   -1.62720817   0.77805449  -1.81440791
H   -2.00899944  -0.59998249  -1.31727141
O    0.12795641   0.02406080   4.08561467
H    0.27305684  -0.71550901   4.67571144
H   -0.01128825   0.77142453   4.66724190
O   -1.36794112  -3.78865862  -0.32655469
H   -1.21465779  -4.40181604  -1.04542468
H   -1.54116495  -4.34643023   0.43180946
O   -0.37487703   2.19523715   0.37040858
H   -0.01174465   2.81545458  -0.26180742
H   -1.28817144   2.46318441   0.47204243
O    2.99316799  -2.50894448  -0.98082910
H    3.86697128  -2.26492501  -0.67561745
H    3.15141783  -3.14851485  -1.67519110
O    3.97279657   0.71156818   0.30031399
H    4.53452229  -0.05254165   0.17057486
H    4.58212591   1.44201842   0.40704750
O   -1.22795896  -0.24751886   1.65641479
H   -1.00545783  -0.22371278   2.58709109
H   -2.18335546  -0.19223637   1.63658512
O   -2.14021777   2.38369518  -2.44308841
H   -2.69088794   2.59469772  -3.19705932
H   -2.66411346   2.63993446  -1.68407156
O   -3.88392650   0.02297365   1.05885049
H   -3.89719898  -0.65535991   0.38363255
H   -4.68555922  -0.12275973   1.56122348
O    1.57175207   0.34876258   1.66165000
H    2.51064767   0.48096585   1.53038999
H    1.46619953   0.30433603   2.61197457
O   -3.26285510  -1.83340682  -0.94465978
H   -2.74697217  -2.60957173  -0.72633739
H   -3.92168252  -2.14928011  -1.56304667
O    5.47431804  -1.57444953  -0.13029276
H    6.14658187  -1.53037126  -0.81025621
H    5.89718837  -2.03274356   0.59591596
O    1.58801388   0.77486362  -1.16622034
H    2.52013585   0.76516980  -0.94876575
H    1.47977334   1.54496903  -1.72430053
O    0.52246161   3.18054704  -2.05115249
H   -0.35127841   3.08172149  -2.42936371
H    0.87746371   3.96519349  -2.46892672
O   -3.09628828   2.57520475   0.20781206
H   -3.53994831   1.77656284   0.49341447
H   -3.63749652   3.28621925   0.55100861
Ca   0.14780512   0.20192144   0.18278967
