49
Energy:  -1899.49426651
O   -1.38093935  -0.99975395   0.83109370
H   -1.63488691  -1.69334992   1.43991807
H   -2.20301386  -0.56272018   0.60877227
O    0.13466826  -0.64972856  -1.70580320
H    0.87467116  -0.81088936  -2.29117039
H   -0.60321814  -0.48265562  -2.29218374
O    0.87652733   0.14041184   2.27002000
H    0.91049552  -0.58397718   2.89479080
H    1.22949069   0.88893417   2.75102213
O   -1.90040312  -2.94602860   2.74649105
H   -2.17475476  -3.81905193   2.46578964
H   -2.53127126  -2.70246154   3.42392172
O   -0.31453636   1.65969012   0.05667454
H    0.27417417   2.39816280   0.21259077
H   -1.09913692   2.05444702  -0.32385245
O    2.76469621  -1.00696977  -2.53136661
H    3.23636888  -0.90730131  -3.35830249
H    2.99848685  -1.88346454  -2.22586587
O    1.30523729  -2.11320076   0.53431147
H    1.31584310  -2.52158178   1.39995823
H    1.89275541  -2.65408014   0.00657688
O    1.95429968   2.44322845   3.39389168
H    2.81024858   2.40832842   3.82093420
H    1.41169285   2.96389699   3.98610275
O   -3.07927202   2.42513541  -3.75704317
H   -2.62537217   2.96831451  -4.40137478
H   -3.99346967   2.42969720  -4.04068679
O    0.79297018  -2.46985275   3.23373454
H   -0.12159515  -2.75215855   3.24400750
H    1.19592071  -2.93486764   3.96696293
O    1.93477458   3.13723925   0.69081108
H    2.27237779   4.00341987   0.46280439
H    2.02872485   3.08579919   1.64199935
O   -1.94768305  -0.08442685  -3.31128627
H   -2.34163384   0.76069784  -3.52761671
H   -2.39278841  -0.71003790  -3.88288393
O    2.29771759   0.51421123  -0.23847368
H    2.77362966   0.23598954  -1.02099029
H    2.56346173   1.42431821  -0.10687891
O    3.04703718  -3.43741747  -1.18257686
H    3.93015278  -3.66218739  -0.88963119
H    2.74046621  -4.21903997  -1.64226409
O   -2.60841775   2.72919038  -1.04120699
H   -2.76440790   2.67263077  -1.98391582
H   -2.97065396   3.57841193  -0.78854212
O   -3.54936297   0.42174622   0.16693373
H   -4.50170120   0.35185453   0.23325780
H   -3.40020688   1.25873388  -0.27287983
Ca   0.44342494  -0.24605154   0.27989073
