49
Energy:  -1899.98164593
O   -1.46738498  -3.19693781  -1.30622687
H   -2.04528777  -3.93898366  -1.48406996
H   -0.68628142  -3.58920025  -0.91604838
O    1.19031502   1.71879481   1.00560314
H    1.43509616   2.03755167   1.87434252
H    1.83754136   2.10653176   0.41654458
O    3.31993430  -0.35822457  -0.74370767
H    4.22819404  -0.50945052  -0.48212249
H    3.13745805  -1.04480994  -1.38521745
O   -0.70913983   0.34563264   2.62384282
H   -0.24275689   0.82400635   3.30931885
H   -1.56727055   0.15746800   3.00389226
O    1.13045845  -1.12813388   0.72751883
H    1.98677124  -0.89981873   0.36581114
H    1.06064873  -2.07424805   0.60013584
O   -0.05058798  -1.71581234  -3.17268429
H   -0.34656014  -1.75063713  -4.08231035
H   -0.64583939  -2.30087938  -2.70406487
O   -3.44999200  -0.25576628   2.45567367
H   -3.89659750   0.53719402   2.15904368
H   -4.08458615  -0.68947702   3.02612710
O   -1.79143152  -1.03846874   0.35663216
H   -1.86693893  -1.82211225  -0.18782475
H   -2.54501574  -1.08167994   0.94525382
O    0.03422681   0.38831299  -1.42633877
H    0.04144498   1.23447735  -1.87375983
H    0.00500129  -0.25660603  -2.13306161
O   -4.21460780   2.16392426   1.26754223
H   -4.94608625   2.11677338   0.65195476
H   -4.44016046   2.88652928   1.85337483
O   -1.61287884   1.92583718   0.31781077
H   -2.51288813   2.10776145   0.58821543
H   -1.39142148   2.64251938  -0.27679422
O    1.19901310   2.05706872   3.79971036
H    1.87792237   1.67934606   4.35885224
H    0.99205270   2.89770046   4.20804542
O    0.06355522   3.07978596  -1.80785884
H    1.01370069   3.12915376  -1.70289105
H   -0.13943365   3.74077849  -2.46976234
O    2.75005530   2.41265241  -1.11380646
H    3.07256175   1.51612055  -1.20574159
H    3.51025380   2.96195917  -1.30509725
O    2.45241107  -2.50457328  -2.27595346
H    2.99849465  -2.95292419  -2.92171349
H    1.66503539  -2.25472735  -2.75953220
O    1.01553942  -3.70534613  -0.21619571
H    1.62229205  -3.49302310  -0.92542206
H    1.35577627  -4.51936243   0.15508344
Ca  -0.29991294   0.34997254   0.60850962
