49
Energy:  -1899.19808820
O    0.28011309  -1.48025104   1.45389341
H   -0.29538599  -2.24300455   1.51081200
H    0.88121314  -1.57750354   2.19244100
O    1.39234920   0.94053504  -4.09272108
H    2.10901065   1.50514225  -4.38228438
H    0.79365370   0.91087621  -4.83898906
O    0.85548769   1.37821461   1.31785421
H    1.72112299   1.32984185   1.72352335
H    0.51228875   2.23072266   1.58557863
O   -1.51331061  -3.54183304   1.37542829
H   -1.56660279  -4.36026192   1.86895229
H   -1.65596235  -3.80083921   0.46504478
O   -0.33900104   3.79205935   1.75969324
H   -0.27074177   4.45080442   2.45079921
H   -1.27794976   3.62373394   1.68048647
O    2.11823181  -1.51461769  -2.98212524
H    1.98979764  -0.75295284  -3.54745980
H    2.59284701  -2.14142387  -3.52809802
O    3.34491310   0.45359596   2.06877590
H    4.16080867   0.82976598   2.39899156
H    3.13206480  -0.24177982   2.69117447
O    0.32895277   1.36196025  -1.55571910
H    0.08453136   2.28395010  -1.47556459
H    0.65970097   1.27824010  -2.45005037
O   -3.50539084  -1.68782254   0.63518591
H   -3.07618103  -2.33303100   1.19707276
H   -4.41073205  -1.66417753   0.94507309
O   -1.70535700   0.33120213   0.28510725
H   -2.13520790   1.18468206   0.34017132
H   -2.41059242  -0.30182908   0.41981558
O    2.16205340  -1.63083230   3.49850123
H    1.88209921  -1.43051552   4.39165894
H    2.67544351  -2.43433571   3.58243397
O   -2.23153001  -3.29282081  -1.32995471
H   -2.96854855  -2.79900035  -0.97054286
H   -2.62863993  -3.88769336  -1.96608536
O    2.28601178  -0.44397750  -0.38218448
H    2.68349781  -0.84707234  -1.15403372
H    3.02361205  -0.26133624   0.19989786
O   -0.16578933  -1.51216581  -1.43316168
H    0.48350693  -1.75801416  -2.09210386
H   -0.86142887  -2.16291273  -1.52721445
O   -0.46741003   3.92650668  -1.04429908
H   -0.37068089   4.73649635  -1.54509051
H   -0.21242407   4.16370208  -0.15269807
O   -2.65747184   2.88472966   0.39515339
H   -2.22229177   3.36205783  -0.31125157
H   -3.55708390   3.21163027   0.38702970
Ca   0.28488422  -0.05532987  -0.04762839
