49
Energy:  -1899.94409152
O   -0.34990577  -2.42283775   1.10591080
H    0.07880423  -3.21412113   1.43196325
H   -1.20324922  -2.72358549   0.79352065
O    1.51627807   0.91631115  -2.85290470
H    1.52986628   0.98375412  -3.80762909
H    1.16368854   1.75592121  -2.55800232
O    0.91060052  -0.43041347   2.86179699
H    0.43794451  -0.24108588   3.67234200
H    1.83109243  -0.46169732   3.12246502
O   -2.82215856  -3.01097383   0.13203772
H   -3.38841848  -2.39339072   0.59482563
H   -3.28416956  -3.84750840   0.18669679
O    1.27160636   1.33805295   0.55980644
H    2.18888461   1.53704016   0.74752043
H    0.99686221   2.02405583  -0.04859108
O    3.72445964  -0.06270780  -1.45440399
H    3.10885445   0.32871638  -2.07412102
H    4.44219626  -0.38443682  -1.99990966
O    2.30378974  -1.34587093   0.50878029
H    2.82959172  -1.10660940  -0.25444841
H    2.93223164  -1.38776945   1.22956954
O   -1.40396032   0.31585284   1.19553266
H   -2.24648101  -0.08887422   1.40189819
H   -1.63211514   1.16126731   0.80894294
O   -4.00173896   0.63546318  -1.15571398
H   -3.54503157  -0.04220866  -1.65412254
H   -4.77494219   0.84009643  -1.68155982
O   -3.92759233  -0.75706255   1.25471002
H   -4.18784402  -0.24438699   0.48942271
H   -4.66465149  -0.67576703   1.85999233
O    3.64299315  -0.62016791   2.79942687
H    4.01811515   0.15001489   2.37242126
H    4.32405669  -0.91497282   3.40397163
O   -2.42365340  -1.45373346  -2.11243222
H   -2.64942275  -2.13860268  -1.48297675
H   -2.56644131  -1.85786982  -2.96830444
O    3.98172560   1.45025083   0.91731309
H    4.17555825   1.05319858   0.06818986
H    4.59889040   2.17847701   0.98820809
O   -0.00368895  -0.59676106  -1.16504225
H    0.48537813  -0.15950904  -1.86207590
H   -0.80210548  -0.90844812  -1.59120428
O   -2.15072041   2.49442206  -0.26672964
H   -2.59699883   3.26613759   0.08187123
H   -2.84401559   1.98580969  -0.68730912
O    0.33862212   2.98851543  -1.40384542
H   -0.59065255   2.95208391  -1.17723299
H    0.50487671   3.91317808  -1.58712182
Ca   0.44186353  -0.53078141   0.84809789
