49
Energy:  -1900.08588042
O   -2.50857040   2.94507955   0.64538270
H   -3.11191351   3.67575644   0.51003050
H   -2.72670324   2.61180567   1.51577252
O    1.73734883  -0.53530949   3.31613947
H    1.81392280  -1.46978611   3.50880946
H    2.11932908  -0.10094141   4.07879753
O   -0.53792595   0.25694511   1.90816203
H    0.06189413  -0.04320746   2.59106477
H   -1.28871870   0.60926762   2.38608561
O    0.42777286  -2.03179367  -3.03674077
H   -0.34396035  -2.14371873  -3.59183760
H    1.08590498  -2.61087910  -3.42112863
O    0.84562154   0.49027541  -1.97029010
H    0.80099682  -0.25265378  -2.57220098
H    1.71398973   0.86558754  -2.11626731
O   -0.01407422  -1.65149730  -0.29390383
H    0.01043220  -2.35184838   0.35812351
H    0.07376813  -2.10229523  -1.13372333
O    2.01833297   0.25713428   0.64176839
H    2.80248845   0.62307294   0.23259737
H    2.30221844   0.00285391   1.51982442
O    0.16349119   2.44719464   0.09528816
H    0.77685903   3.12249478  -0.19450741
H   -0.64343472   2.92367654   0.29039689
O   -1.85518222  -2.30314307  -4.58321014
H   -1.88254256  -1.88915598  -5.44582126
H   -2.19790270  -3.18488032  -4.72920307
O    1.89972762  -3.25963184   3.82366595
H    1.56646777  -3.57912014   4.66217472
H    2.73381200  -3.71472782   3.70780937
O    2.11433504   4.18288112  -0.85984539
H    2.57020573   4.76433017  -0.25129731
H    1.91618184   4.73489235  -1.61631796
O   -3.13438553  -0.87249483  -2.56710253
H   -2.75194894  -1.36360570  -3.29427803
H   -4.07971469  -0.96022536  -2.68911887
O    3.27841108   1.71160755  -1.43740434
H    3.05840986   2.63402892  -1.30713495
H    4.13797263   1.72702122  -1.85829413
O    0.12865026  -3.47096089   1.68576374
H    0.73785865  -3.48462410   2.42394414
H   -0.33878692  -4.30416860   1.74491813
O   -2.73714188   1.53072149   3.04591944
H   -2.64383620   2.03356613   3.85503820
H   -3.54021095   1.02463011   3.16914053
O   -1.85261314   0.58504331  -0.70189832
H   -2.40623963   1.33522700  -0.48520962
H   -2.35753043   0.09328235  -1.34955682
Ca   0.08036079   0.38157918  -0.05966317
