43
Energy:   -477.54315754
C    2.09376479  -3.11725751  -1.40607182
H    3.02884717  -3.51769799  -1.07415536
H    2.12237350  -2.97626251  -2.46635529
H    1.30615309  -3.79767072  -1.15786874
C    1.84034162  -1.76456116  -0.71499347
N    1.65165654  -0.75741724  -0.20045423
C   -3.09508299   4.18127599   2.66667613
H   -3.79023497   3.76678071   3.36657439
H   -3.59788613   4.38972824   1.74546185
H   -2.68706951   5.08743062   3.06329672
C   -1.95815550   3.17363688   2.41436817
N   -1.11166131   2.42340376   2.22651341
C   -2.08153687  -4.20378473  -4.87632489
H   -1.92859543  -5.24010229  -4.65825379
H   -1.68029504  -3.97963839  -5.84258702
H   -3.12953244  -3.98812695  -4.86652186
C   -1.37081502  -3.34524977  -3.81359625
N   -0.84165030  -2.70603146  -3.02234646
C    2.16567420  -0.66855176   5.55041297
H    1.54870506  -0.19061937   6.28241700
H    3.18877279  -0.40439528   5.71890548
H    2.05393494  -1.72988110   5.62783038
C    1.74197165  -0.20908329   4.14294544
N    1.42650584   0.13301186   3.09502188
C    0.19408659   0.69181135  -3.54464640
H   -0.61318778   0.77418576  -4.24208653
H    0.56125289  -0.31321390  -3.54114527
H    0.98123098   1.35811039  -3.82986280
C   -0.30538716   1.06076695  -2.13539209
N   -0.67726808   1.33547117  -1.08613819
C   -3.53515185  -2.04801321   0.05361860
H   -4.42606241  -1.77524709   0.57971480
H   -3.40425041  -3.10896401   0.09995759
H   -3.61713561  -1.74307275  -0.96872629
C   -2.32330938  -1.35250153   0.70115340
N   -1.42103757  -0.83466147   1.18327249
C    3.94642244   4.44244759   0.62554253
H    3.55436693   5.40709477   0.87181165
H    4.36928296   4.46952090  -0.35698233
H    4.70352806   4.17407283   1.33241251
C    2.81241812   3.40136861   0.66783614
N    1.96810035   2.62623799   0.69932566
Na   0.33591525   0.87564912   1.08943990
