43
Energy:   -477.71279190
C   -0.17995555   0.45587419   5.60144630
H   -0.76678688   1.25905157   5.99569910
H    0.78993669   0.46761341   6.05318773
H   -0.66140235  -0.47563438   5.81451874
C   -0.03835318   0.62367975   4.07717924
N    0.06707622   0.74861862   2.94229313
C   -3.23808458   1.42201570   0.04577803
H   -3.75819407   2.01544699  -0.67687376
H   -3.47596082   1.76864310   1.02973099
H   -3.53442780   0.39864807  -0.05320922
C   -1.72063635   1.54191853  -0.18783310
N   -0.59082716   1.63119163  -0.36176721
C   -1.73520267  -3.53994337  -0.87368284
H   -1.10533733  -4.40056716  -0.78710045
H   -1.81144399  -3.25580089  -1.90244394
H   -2.70869964  -3.77081479  -0.49433980
C   -1.13089844  -2.37795688  -0.06361876
N   -0.68096647  -1.51280512   0.53951076
C    0.82001861   0.29871410  -3.79843596
H    1.41222135   1.08503667  -4.21783185
H   -0.18950561   0.63450277  -3.68439255
H    0.84211731  -0.55035961  -4.44919288
C    1.38884499  -0.09425653  -2.42235071
N    1.81236209  -0.38684103  -1.39779268
C    5.05609678  -2.46648888   1.86884028
H    5.36936602  -2.69074325   0.87060557
H    4.97168482  -3.37445591   2.42863452
H    5.77685608  -1.82664082   2.33359784
C    3.68935636  -1.75783808   1.83096330
N    2.67175599  -1.23021535   1.80276216
C   -4.58488025  -1.10423898  -4.69277495
H   -5.13519080  -2.01880311  -4.61773544
H   -4.00202444  -1.11129122  -5.59006446
H   -5.26577252  -0.27917257  -4.71623174
C   -3.65174355  -0.96527897  -3.47558720
N   -2.95698087  -0.86181692  -2.56933559
C    2.97464079   4.76154767   1.22652515
H    3.08385205   5.21802530   0.26496327
H    3.88132806   4.87939556   1.78233911
H    2.16962407   5.22915078   1.75396661
C    2.67112810   3.26194665   1.05137710
N    2.44514910   2.14542554   0.92097141
Na   1.02985983   0.20551724   0.79770475
