43
Energy:   -477.60265139
C    1.65482883   2.33220863   4.79449534
H    2.00844899   1.54955465   5.43270041
H    0.83655578   2.83488040   5.26635273
H    2.44570817   3.02992372   4.61393342
C    1.18530576   1.73098448   3.45670701
N    0.83572449   1.28334577   2.46066280
C    0.54789495  -3.65000651   1.45557410
H    1.39118941  -3.95081597   2.04146514
H    0.33258638  -4.40364208   0.72716849
H   -0.30081627  -3.51784647   2.09363529
C    0.86557501  -2.32260320   0.74235617
N    1.10210225  -1.33429109   0.21133299
C   -0.42561396   5.56138313  -1.55265812
H    0.42936965   5.95656047  -2.06033721
H   -0.84077277   6.31342686  -0.91471418
H   -1.15858435   5.25863819  -2.27098883
C   -0.00370271   4.34596660  -0.70628140
N    0.31042939   3.44103375  -0.07611545
C   -0.36885922  -1.43703557  -3.56373242
H    0.27954141  -1.75131325  -4.35474845
H   -1.33093788  -1.19642372  -3.96549065
H   -0.46825945  -2.22698901  -2.84889521
C    0.22566577  -0.19406720  -2.87585914
N    0.66831665   0.73137926  -2.36370621
C   -3.98898445  -0.30853811   0.89700547
H   -4.40057328   0.39230841   1.59292858
H   -3.87137340  -1.25860242   1.37496419
H   -4.64824596  -0.40939573   0.06028503
C   -2.61703003   0.19530969   0.41174424
N   -1.59554760   0.57044727   0.05044520
C    5.67350448   1.89336941  -0.91656894
H    6.16545777   2.52745954  -0.20888833
H    5.67871991   2.36135227  -1.87878718
H    6.18679102   0.95621631  -0.97296106
C    4.21920165   1.65600765  -0.46906175
N    3.13640710   1.47928104  -0.13587230
C   -3.77273953  -5.34065620  -1.06141389
H   -4.51088258  -5.51993350  -0.30781939
H   -3.12513459  -6.18920617  -1.13537251
H   -4.25576282  -5.17755402  -2.00215045
C   -2.94723842  -4.09609626  -0.68562344
N   -2.33261531  -3.16946481  -0.40583037
Na   0.78434978   1.05344382   0.05012028
