43
Energy:   -477.55553142
C    5.04045296   3.18670703  -2.82336399
H    5.22756513   4.06004556  -2.23415346
H    4.98128650   3.45932514  -3.85635856
H    5.83666385   2.48550359  -2.68457980
C    3.71035595   2.54659376  -2.38439140
N    2.72003826   2.07000034  -2.05755635
C   -5.44615847   1.19282515   0.77392168
H   -5.91076780   0.63294005  -0.01065912
H   -5.65688305   2.23359499   0.64242115
H   -5.82898548   0.86801870   1.71882556
C   -3.92319503   0.96818870   0.73243865
N   -2.78927953   0.80093665   0.70155266
C   -1.11720541  -1.98980785   5.51607940
H   -2.07012636  -2.44501556   5.68820657
H   -0.99248338  -1.16100878   6.18123773
H   -0.34257624  -2.70699240   5.69070777
C   -1.04010485  -1.49528961   4.05967725
N   -0.98269998  -1.12709831   2.97531965
C    0.78286364   3.80892758   0.39700285
H    0.77979944   3.94176423  -0.66471520
H    1.69131340   4.20230467   0.80304790
H   -0.05152291   4.32546369   0.82348688
C    0.68067794   2.30814460   0.72686422
N    0.60459605   1.19074345   0.97246100
C   -2.30295193  -5.21556823  -0.69131311
H   -2.90515036  -5.79273193  -0.02113455
H   -1.31222421  -5.61887077  -0.71785984
H   -2.72837779  -5.24978733  -1.67250676
C   -2.24984837  -3.75517723  -0.20547554
N   -2.21031036  -2.66784975   0.15625262
C    0.12267887   0.82686982  -4.09762400
H   -0.55832540   0.51986830  -4.86370717
H    1.10306639   0.46379129  -4.32546910
H    0.14149748   1.89537844  -4.04438590
C   -0.33529474   0.25342951  -2.74373096
N   -0.67627691  -0.17352286  -1.73569604
C    3.64750596  -1.18821409   0.44833068
H    4.19246466  -1.69263959   1.21870404
H    3.66057127  -0.13446967   0.63367115
H    4.10118833  -1.38927170  -0.49963938
C    2.19140246  -1.68945093   0.43718543
N    1.10726721  -2.06264454   0.42888728
Na  -0.89250719  -0.68595413   0.60803811
