43
Energy:   -478.29670467
C   -1.52973960  -0.56693167  -5.79465415
H   -1.11476812  -1.49912733  -6.11669467
H   -0.93275335   0.23785424  -6.16992223
H   -2.52862280  -0.47366155  -6.16671886
C   -1.54855721  -0.51779605  -4.25555325
N   -1.56256778  -0.48121234  -3.10962267
C    3.82345825  -0.25554360  -0.22754800
H    3.78426129  -0.58540551   0.78958272
H    4.20579754   0.74314394  -0.26413978
H    4.46427109  -0.90355077  -0.78821252
C    2.40729582  -0.28550667  -0.83185437
N    1.35289852  -0.30781554  -1.28178794
C    0.42956408   3.84297323  -0.15930197
H    1.24886308   3.76840299  -0.84347199
H    0.80494076   3.91696039   0.83995642
H   -0.14843517   4.71375155  -0.38856402
C   -0.45799057   2.59054037  -0.28282795
N   -1.11881535   1.65804717  -0.37479866
C   -5.76908263   0.21777452   0.24335618
H   -6.09464138   0.70212749  -0.65347930
H   -5.70201973   0.93683190   1.03288650
H   -6.47128902  -0.54329194   0.51276876
C   -4.38638713  -0.41887118   0.01004224
N   -3.35690747  -0.89288284  -0.16367059
C   -1.56473443  -5.73790314  -1.01538140
H   -1.58214827  -6.11142328  -0.01284480
H   -0.85350582  -6.29309490  -1.59054666
H   -2.53601870  -5.84254623  -1.45190834
C   -1.16538503  -4.25064176  -1.00220418
N   -0.86805125  -3.14330805  -0.99239313
C    4.76924608   3.43702212   3.63803205
H    4.89878112   4.34256114   3.08294652
H    5.70728276   2.92786741   3.71384613
H    4.40864133   3.66820855   4.61855035
C    3.75174033   2.53378778   2.91661000
N    2.99416105   1.86128876   2.37947849
C    0.71664728  -0.25211241   3.96776953
H    0.70537493   0.81060504   4.09188530
H    1.71688276  -0.61412228   4.08342826
H    0.08631733  -0.70400156   4.70491229
C    0.20048268  -0.61022562   2.56173644
N   -0.18382532  -0.87685717   1.51488089
Na  -1.00066197  -0.74191518  -0.76456764
