43
Energy:   -477.50750704
C   -4.87183220   1.17937101  -2.21626121
H   -5.34632120   0.26825824  -2.51565041
H   -4.51335026   1.69601892  -3.08197752
H   -5.57742267   1.79593697  -1.69964957
C   -3.68934380   0.85971087  -1.28291316
N   -2.80892744   0.62170937  -0.58799310
C    5.57297263   3.58034389   0.08395058
H    6.37766759   3.00554268  -0.32466876
H    5.75098501   3.75362966   1.12471123
H    5.50849723   4.51781747  -0.42779673
C    4.25140270   2.80896346  -0.08932710
N    3.26743382   2.23463567  -0.21834020
C    2.88815192  -1.13425726   2.30528679
H    3.76675124  -0.98545428   1.71298528
H    3.10446753  -1.81911516   3.09843010
H    2.57348407  -0.19851676   2.71792823
C    1.76517741  -1.70950674   1.42232798
N    0.92907183  -2.13780612   0.76492501
C    0.38072032   3.58991994   1.07895101
H    0.77440148   3.76038260   0.09871746
H    1.08316292   3.93220522   1.80991905
H   -0.53975139   4.12375353   1.19143487
C    0.12791225   2.08362224   1.27581466
N   -0.06031486   0.96211513   1.42238861
C    2.15713858   1.16297715  -3.31510923
H    2.21148621   2.21560727  -3.13094532
H    1.91527326   0.99282300  -4.34343205
H    3.10163123   0.71255645  -3.09160550
C    1.06765855   0.54113942  -2.42182813
N    0.25649115   0.07815297  -1.75673975
C   -3.77255384  -2.39403472   4.01255208
H   -3.83322768  -1.57218324   4.69503213
H   -3.33025705  -3.23470831   4.50503613
H   -4.75532648  -2.65312370   3.67799276
C   -2.90734615  -1.99404976   2.80299527
N   -2.26315969  -1.69624278   1.90242524
C   -1.53689050  -5.19078044  -2.01717352
H   -1.30000172  -5.25178014  -3.05883706
H   -2.45221032  -5.71180987  -1.82844868
H   -0.74908208  -5.63527815  -1.44561532
C   -1.69431244  -3.71334655  -1.61219521
N   -1.81152024  -2.61332986  -1.31067046
Na  -1.01878693  -0.83186930   0.07337353
