43
Energy:   -478.19871363
C    1.41685291   5.49931163  -1.80267326
H    2.41210612   5.88321777  -1.88626333
H    0.87863185   6.06056821  -1.06768466
H    0.92198719   5.58236902  -2.74771744
C    1.47130503   4.01944068  -1.38004229
N    1.51184712   2.91760949  -1.06537433
C   -1.81738820  -1.69173681  -3.19101221
H   -1.36945834  -1.76675577  -4.15984201
H   -2.82010233  -1.33126691  -3.28860782
H   -1.82858066  -2.65611393  -2.72760030
C   -1.00280332  -0.71458889  -2.32312200
N   -0.39630785   0.01294215  -1.67693828
C   -3.28359831   0.90590884   2.13480203
H   -3.48401947   1.38531730   3.07016243
H   -3.20108068  -0.15017001   2.28575698
H   -4.08272592   1.10728718   1.45234990
C   -1.96375664   1.44604982   1.55353989
N   -0.98107451   1.84820933   1.12076380
C   -0.15899268  -3.78949377   0.63154084
H    0.72635049  -4.37626340   0.76103623
H   -0.49312224  -3.86692416  -0.38199804
H   -0.92405867  -4.14864380   1.28773011
C    0.14879546  -2.31663206   0.95948116
N    0.37795771  -1.22001957   1.20364764
C   -5.78497387  -3.26714525  -0.11832930
H   -5.74402130  -4.33615476  -0.09731172
H   -6.25895357  -2.94607772  -1.02229721
H   -6.34513220  -2.91507301   0.72260285
C   -4.35552672  -2.69738772  -0.05785442
N   -3.29123835  -2.27317735  -0.01282812
C    5.29029452  -0.54176073  -2.11753706
H    5.87462428  -1.25328961  -1.57238978
H    5.79481820   0.40177936  -2.12686721
H    5.15680722  -0.88478748  -3.12223247
C    3.91527903  -0.38198103  -1.44270164
N    2.89151749  -0.26301779  -0.94025600
C    3.51226738   2.07729812   4.31185587
H    3.30219977   3.08908735   4.58944251
H    4.57138363   1.93438686   4.25943244
H    3.09856458   1.41381946   5.04229762
C    2.88569367   1.78167615   2.93649663
N    2.41918106   1.56157215   1.91247916
Na   1.00845112   0.86061067   0.09406284
