43
Energy:   -477.54290627
C    3.40838767   4.33695792   1.72809765
H    3.83482613   3.95347803   2.63142129
H    3.26485098   5.39314211   1.82175270
H    4.06820435   4.13787280   0.90961969
C    2.05157541   3.65529912   1.47118957
N    1.04136700   3.14777316   1.27990983
C    1.61233606  -5.97997245  -2.07037728
H    2.63733416  -6.11869919  -1.79645402
H    1.52153328  -6.00449376  -3.13623499
H    1.02012498  -6.76245413  -1.64387107
C    1.12013351  -4.61882620  -1.54443286
N    0.75366634  -3.60539094  -1.15284334
C   -2.63761115   4.57461029  -2.54694085
H   -2.09188097   4.41928318  -3.45410801
H   -2.48985506   5.57915549  -2.20936691
H   -3.67948654   4.40759332  -2.72442351
C   -2.13619034   3.59274888  -1.47170816
N   -1.76285976   2.86170843  -0.67114854
C    0.85510343  -2.86090608   2.29776167
H    0.77418164  -2.79783583   3.36283161
H    1.68381444  -3.48653764   2.03945505
H   -0.04492206  -3.27708452   1.89570607
C    1.07421027  -1.45224998   1.71528404
N    1.23734527  -0.40344149   1.28160297
C   -2.97752438   2.33596706   4.34383658
H   -2.87306861   1.77900654   5.25146214
H   -4.00670986   2.35186629   4.05156349
H   -2.63523185   3.33783241   4.49875827
C   -2.13924875   1.67275249   3.23521564
N   -1.51511444   1.17895909   2.40979695
C    2.66904528  -0.68966045  -2.93964217
H    3.19301686  -0.20725469  -3.73816496
H    2.01104431  -1.43150137  -3.34164448
H    3.37247088  -1.15569223  -2.28168632
C    1.84953893   0.35447150  -2.15874665
N    1.23937921   1.13187520  -1.57733444
C   -2.74591396  -2.89398875  -1.13959557
H   -3.80615752  -2.75001403  -1.14701566
H   -2.49172935  -3.63530554  -0.41107741
H   -2.42332457  -3.21895270  -2.10667034
C   -2.05007796  -1.56655520  -0.78557237
N   -1.53199643  -0.57822058  -0.52198600
Na  -0.25458685   1.29268448   0.34578072
