43
Energy:   -477.48152784
C    0.90629987  -1.12792221  -3.98390037
H    1.63104520  -0.41181777  -4.31076245
H   -0.06354057  -0.83734291  -4.33012612
H    1.15264398  -2.09092984  -4.37991803
C    0.90450226  -1.19078328  -2.44518491
N    0.90316386  -1.23758621  -1.29954132
C    3.38799049  -4.28290577   2.14521164
H    3.07030016  -4.89148024   2.96594920
H    4.39516971  -3.96087186   2.30886757
H    3.33777663  -4.85076418   1.23972034
C    2.46791068  -3.05320777   2.03165124
N    1.78286944  -2.13764171   1.94710037
C   -3.60449920  -1.84506658   0.08607250
H   -4.41211520  -1.14320094   0.09249197
H   -3.85178601  -2.67905340   0.70914096
H   -3.43532512  -2.18499579  -0.91429111
C   -2.32970968  -1.16566566   0.61985718
N   -1.38057094  -0.65982080   1.01728414
C    4.68643139   2.83845183   0.18280582
H    4.01930878   3.66390202   0.04686618
H    5.33902955   2.76443068  -0.66190455
H    5.26618380   2.99063861   1.06916095
C    3.87292420   1.53791823   0.31852019
N    3.26723112   0.56961184   0.41956571
C   -2.19225448   2.89974258  -0.37941118
H   -2.89937616   2.10069908  -0.29935734
H   -2.34996800   3.42487063  -1.29825071
H   -2.32004398   3.57279197   0.44252157
C   -0.76361440   2.32528703  -0.35515553
N    0.30007308   1.89757876  -0.33709609
C    0.70604293   0.98621591   5.58597221
H    0.53641549  -0.01985852   5.90837095
H   -0.09576774   1.60899790   5.92382030
H    1.62937617   1.34070339   5.99425329
C    0.77527812   1.02767361   4.04808803
N    0.82682686   1.05854075   2.90306335
C   -4.78672789   0.61157605  -4.33676788
H   -4.47449140   1.34561595  -5.04992562
H   -5.69087627   0.93491764  -3.86468207
H   -4.95787726  -0.31969445  -4.83510735
C   -3.68848813   0.43007017  -3.27256628
N   -2.87079871   0.29493080  -2.48021982
Na   1.00303736  -0.13455556   0.82781306
