43
Energy:   -477.64268250
C    2.62289558  -1.01559075  -2.95707173
H    3.55685803  -0.56455737  -2.69404473
H    2.40104586  -0.80445509  -3.98230513
H    2.68604996  -2.07444204  -2.81655642
C    1.50708848  -0.44466383  -2.06229971
N    0.67631938  -0.01958279  -1.39610127
C   -1.12180958   5.28191787  -1.90800177
H   -0.61121283   5.66814418  -1.05066848
H   -2.05618459   5.78989025  -2.02550285
H   -0.52070795   5.43462076  -2.77992937
C   -1.37702316   3.77515949  -1.71788280
N   -1.56704127   2.65330939  -1.57633059
C   -0.02198041  -3.49041610   1.24284841
H    0.52370300  -3.64773835   0.33599699
H   -0.94367061  -4.03245547   1.20310423
H    0.55880708  -3.83478775   2.07290452
C   -0.31671208  -1.98821776   1.41057846
N   -0.53615321  -0.86976281   1.53546110
C    4.98932109  -4.31650641   0.53568339
H    5.95092631  -3.84804137   0.56318055
H    4.95828425  -5.02016736  -0.26979601
H    4.81378191  -4.82511700   1.46056196
C    3.90264152  -3.24597917   0.32426213
N    3.09355919  -2.44892298   0.16684940
C    2.85723362   0.94401936   2.14905401
H    3.70976754   1.10157640   1.52194806
H    2.67741057  -0.10598269   2.24934595
H    3.04102697   1.36817452   3.11404701
C    1.62450558   1.61800785   1.51840268
N    0.70668352   2.11982293   1.04885410
C   -3.78919373   2.40282664   3.93118707
H   -4.83436625   2.60187080   3.81762642
H   -3.30279602   3.26782531   4.33130414
H   -3.65376853   1.57703907   4.59799588
C   -3.17988570   2.05991657   2.55905136
N   -2.72622817   1.80460444   1.53743395
C   -4.58166535  -0.63508722  -3.02005236
H   -5.41880410  -1.18134611  -2.63834550
H   -4.22185685  -1.10919474  -3.90924243
H   -4.88260423   0.36641169  -3.24662426
C   -3.46153762  -0.60793206  -1.96355983
N   -2.62755160  -0.58771381  -1.17695313
Na  -1.10515561   0.88352350  -0.03641341
