43
Energy:   -477.53624989
C    6.06731750   2.19352746   1.10183800
H    6.16420355   3.18951081   1.48069210
H    6.34904853   2.17553553   0.06975128
H    6.70447537   1.53720982   1.65697411
C    4.60535828   1.73055684   1.24302391
N    3.51686319   1.38585416   1.34814323
C   -2.63860137  -0.04644094  -5.16751223
H   -2.80637310   1.00636321  -5.25892474
H   -3.55676678  -0.56977676  -5.33481733
H   -1.91435012  -0.35638954  -5.89159170
C   -2.11804312  -0.36238582  -3.75301657
N   -1.73046384  -0.59762114  -2.69986027
C   -3.21244306  -4.99121863   0.44123260
H   -2.60762999  -5.57577603  -0.22012507
H   -4.24393313  -5.11679300   0.18597116
H   -3.05265660  -5.31324512   1.44903532
C   -2.82831953  -3.50567963   0.30999614
N   -2.54232209  -2.39962833   0.21228462
C    3.25084341  -1.30498168  -1.90164018
H    3.28362789  -0.25143102  -2.08564121
H    3.39237231  -1.83233354  -2.82184052
H    4.02688741  -1.57142206  -1.21486197
C    1.88303673  -1.67884026  -1.30086179
N    0.86464249  -1.95719497  -0.85355497
C    0.87347140   3.53213015   0.54172087
H    0.00267790   4.14735944   0.63178632
H    1.65103642   4.08353542   0.05567153
H    1.20230843   3.23469433   1.51552641
C    0.53437061   2.28113148  -0.28991186
N    0.28189466   1.34970611  -0.90910022
C    1.75433388  -0.36444592   3.76103402
H    1.39202018  -0.88584061   4.62229852
H    2.00634188   0.63959333   4.03176683
H    2.62363284  -0.86082954   3.38311643
C    0.66194903  -0.34467188   2.67572102
N   -0.15138114  -0.32994922   1.86765615
C   -5.21942223   1.49447358   1.48565958
H   -5.38096105   0.80274554   2.28585812
H   -6.02211362   1.41974695   0.78209611
H   -5.17960261   2.48955672   1.87696895
C   -3.88895962   1.16541890   0.78338308
N   -2.89836974   0.92042273   0.26050631
Na  -1.10000116  -0.56217686  -0.35645210
