43
Energy:   -477.67239207
C    1.13899684   4.80593128  -4.37095118
H    0.31374620   5.46204734  -4.55363472
H    1.27329232   4.15887830  -5.21248921
H    2.02703791   5.38334661  -4.21971067
C    0.85533996   3.96183927  -3.11450880
N    0.64414452   3.33337439  -2.17903034
C    0.61677328  -0.77927636   5.74007961
H   -0.39688993  -0.64350759   6.05464904
H    1.20567863   0.05271391   6.06547442
H    1.00522329  -1.68005659   6.16739759
C    0.66902953  -0.87567593   4.20398834
N    0.70793668  -0.94744980   3.06029856
C   -4.53225552  -3.48548041   1.12515925
H   -4.40658229  -4.46091901   1.54661621
H   -4.64535617  -3.56717522   0.06429484
H   -5.40395068  -3.02623904   1.54246489
C   -3.29575902  -2.62496129   1.44482040
N   -2.37513117  -1.98426569   1.68282266
C    2.45273533  -5.20584630   0.27526873
H    2.56084380  -5.68373646   1.22649622
H    3.38918822  -4.77935971  -0.01809839
H    2.14533181  -5.92678328  -0.45318993
C    1.39177722  -4.09425127   0.37687770
N    0.60184568  -3.26661825   0.45253019
C    2.98897732   2.26037765   0.07610366
H    3.38257817   2.54703600  -0.87668464
H    3.79005078   2.16581421   0.77912440
H    2.30145270   3.00604369   0.41697189
C    2.25905959   0.91070050  -0.05501342
N    1.71560265  -0.09419549  -0.15263605
C   -0.60322691  -0.39089206  -3.95837165
H    0.00387416   0.48935918  -3.99692341
H   -1.50415904  -0.22732431  -4.51196534
H   -0.06700832  -1.21293290  -4.38453777
C   -0.95208438  -0.71008736  -2.49276159
N   -1.21182462  -0.94774277  -1.40154829
C   -1.78511407   3.65756385   0.29156486
H   -2.48325316   4.07358736   0.98757235
H   -2.25569375   3.54768571  -0.66309772
H   -0.94120001   4.30901504   0.20035357
C   -1.31763727   2.27933822   0.79511182
N   -0.96957954   1.25318658   1.17002541
Na  -0.29381075  -1.04306200   0.86908652
