43
Energy:   -477.60564871
C   -5.30468976  -2.10249250   0.28214495
H   -5.13323859  -3.05196402  -0.18046559
H   -6.16241696  -1.64007345  -0.15986382
H   -5.47436303  -2.24145430   1.32942700
C   -4.07276041  -1.20149834   0.07681689
N   -3.15553302  -0.53066724  -0.07605918
C   -3.51438589   4.94190835  -0.30003124
H   -3.11704788   5.49010455  -1.12858637
H   -3.51076989   5.56155301   0.57227977
H   -4.51743964   4.64094071  -0.51957795
C   -2.64781082   3.69425668  -0.04702339
N   -2.00260629   2.76532331   0.14135245
C    5.61385504  -2.02175640  -2.68525955
H    5.79511615  -3.07580210  -2.71738828
H    6.35847869  -1.55013065  -2.07862633
H    5.65617359  -1.62218491  -3.67695045
C    4.22036355  -1.75859085  -2.08482190
N    3.18284580  -1.56265214  -1.63776878
C    1.67530608  -3.69835356   0.76414608
H    1.68038472  -4.13416542  -0.21306546
H    1.37785441  -4.43450187   1.48143770
H    2.65674288  -3.34468568   1.00205347
C    0.68356757  -2.52062227   0.79582775
N   -0.05482683  -1.64374779   0.81941619
C   -1.39207910   0.96966446   5.47543658
H   -0.99927971   0.08912501   5.93939680
H   -2.33483497   1.21557562   5.91774661
H   -0.70953106   1.78161754   5.61600495
C   -1.58291216   0.71444889   3.96876881
N   -1.72499604   0.52442929   2.84698618
C    0.52691799  -0.94381007  -3.89182394
H    0.76452655  -1.94592200  -3.60162738
H    1.38452358  -0.49036625  -4.34326657
H   -0.28034239  -0.95772449  -4.59398927
C    0.11247909  -0.13411036  -2.64915473
N   -0.19608950   0.46874789  -1.72393102
C    3.31181821   2.36621917  -0.11882861
H    3.07133357   2.65598776  -1.12037816
H    4.03089173   1.57413300  -0.13961010
H    3.71948065   3.20432087   0.40681002
C    2.03627654   1.88294019   0.59603842
N    1.08657779   1.52311702   1.12828942
Na  -1.05756022   0.54286336   0.52771806
