43
Energy:   -477.58053613
C    2.59371105   2.67421425  -4.43880106
H    2.15005298   2.43922205  -5.38370654
H    3.61087461   2.34225202  -4.42994318
H    2.56251980   3.73241484  -4.28343790
C    1.81318256   1.96718575  -3.31519704
N    1.23204361   1.44077090  -2.47862279
C    1.70659984   5.07859701   2.28499670
H    2.47667469   5.74150596   1.94968099
H    1.97065469   4.68044436   3.24241437
H    0.78389914   5.61461552   2.36377917
C    1.54622508   3.92607784   1.27624525
N    1.42681878   3.06797492   0.52518394
C   -5.14455822  -3.65531180   1.61503209
H   -5.64826187  -4.20940751   0.85072799
H   -5.83671399  -2.99107242   2.08895776
H   -4.74498794  -4.33176489   2.34142998
C   -3.99849509  -2.84024811   0.98748889
N   -3.14519899  -2.23339614   0.52025445
C    5.77147739  -0.75440753   0.52442939
H    6.11502527  -0.43251961   1.48529525
H    6.45434329  -0.42066400  -0.22870308
H    5.71403076  -1.82269913   0.50566682
C    4.37688655  -0.16048432   0.25245218
N    3.33855028   0.28171851   0.04995279
C   -1.09406440  -3.08963989  -2.25406753
H   -0.57680157  -3.38204285  -3.14392138
H   -1.98528799  -2.55933961  -2.51750863
H   -1.35136323  -3.96075712  -1.68851367
C   -0.18552084  -2.17827494  -1.40815824
N    0.49093113  -1.49972230  -0.77834032
C   -0.70847425  -1.82252105   3.54834865
H   -0.83005217  -2.67927970   2.91899692
H   -1.66737306  -1.48979921   3.88703485
H   -0.10285945  -2.08227077   4.39135511
C   -0.02502682  -0.69445233   2.75338917
N    0.48383085   0.14544611   2.16150570
C   -3.92650062   0.81965087  -1.15461173
H   -4.02266330  -0.14306011  -1.61160242
H   -4.19995484   1.57758068  -1.85864602
H   -4.57060575   0.87569411  -0.30203514
C   -2.46749611   1.03372269  -0.71067581
N   -1.38120094   1.19310888  -0.38014534
Na   0.99512911   0.80093805  -0.15798060
