43
Energy:   -477.60870055
C    2.26253207   2.11751699   5.07916141
H    2.11553553   3.16026071   5.26883938
H    3.30365693   1.88381135   5.15878426
H    1.71238992   1.54369082   5.79537803
C    1.76744823   1.77898705   3.66075051
N    1.39883581   1.52693613   2.60467913
C   -2.13219301  -3.00859042   1.42443137
H   -1.64953548  -3.96089990   1.35337825
H   -2.89090044  -2.93634379   0.67340371
H   -2.57719214  -2.90557720   2.39203828
C   -1.09441955  -1.89021782   1.21498215
N   -0.32175004  -1.05753858   1.05903768
C   -0.83845558  -0.86958730  -3.62044998
H   -0.93504593  -0.34361377  -4.54723061
H   -1.63378778  -1.57945904  -3.52864637
H    0.10090524  -1.38139981  -3.59703439
C   -0.90673136   0.13171784  -2.45240613
N   -0.95756578   0.87723502  -1.58274439
C    3.33297992  -2.20179356  -0.64340711
H    3.29194693  -2.62700016   0.33762083
H    4.35444659  -2.09701542  -0.94428330
H    2.82241120  -2.84264492  -1.33154096
C    2.65672442  -0.81826671  -0.63191882
N    2.15322147   0.21183191  -0.62336527
C    2.13312604   5.38730022  -1.47150495
H    1.92015084   6.34388867  -1.04199327
H    1.82979633   5.38153075  -2.49759310
H    3.18370471   5.19420953  -1.40905870
C    1.36416985   4.29673596  -0.70275533
N    0.79164701   3.48476130  -0.13038629
C   -0.99042886  -6.04661643  -2.51517982
H   -0.51529595  -6.77677474  -1.89387657
H   -0.62403960  -6.13746272  -3.51638158
H   -2.04855187  -6.20537690  -2.50681893
C   -0.67868501  -4.63648462  -1.98044246
N   -0.44657755  -3.58657739  -1.58230618
C   -4.00963880   3.53269273   1.33198671
H   -4.71436273   3.25479448   2.08765656
H   -4.45384065   3.40743312   0.36664022
H   -3.72891322   4.55656892   1.46529003
C   -2.76007730   2.63932074   1.44190738
N   -1.82972196   1.97416469   1.52374832
Na   0.24208154   1.22385224   0.51161029
