43
Energy:   -477.48398890
C   -3.00798170  -2.06184428   1.80713597
H   -3.45141160  -1.93124417   2.77213012
H   -2.15434344  -2.70157212   1.89049721
H   -3.72154838  -2.50392071   1.14359236
C   -2.57137173  -0.69281893   1.25329366
N   -2.24629576   0.32648268   0.84093289
C   -1.34575191  -5.98333759  -2.14497485
H   -2.36332721  -6.00161874  -2.47528755
H   -1.21282440  -6.69773451  -1.35956641
H   -0.70081543  -6.22831796  -2.96286277
C   -1.00074619  -4.57623776  -1.62282437
N   -0.74387375  -3.52858797  -1.23405960
C    4.20239650   3.33157482  -1.09750222
H    5.10406265   2.75639790  -1.13021077
H    4.38866763   4.25860726  -0.59668986
H    3.86702829   3.52606130  -2.09479970
C    3.11925769   2.54524937  -0.33585756
N    2.31281161   1.95979432   0.23122151
C    1.31851089   2.57273891   5.14499552
H    2.26105851   2.06716873   5.17504488
H    0.70049867   2.22299454   5.94539470
H    1.47525403   3.62602741   5.24946570
C    0.62582837   2.28780393   3.79940903
N    0.11009475   2.07565689   2.79755873
C   -2.67485612   5.13201583  -0.87770863
H   -2.33012791   5.86618917  -1.57559985
H   -2.97597837   5.61491932   0.02839772
H   -3.50785192   4.60620151  -1.29548415
C   -1.53872282   4.13711282  -0.57609777
N   -0.69281993   3.39636230  -0.35153478
C    2.26328068  -2.95977291   0.42740486
H    3.26586085  -2.83540045   0.77991682
H    2.26212780  -2.98723127  -0.64224171
H    1.86240561  -3.87587366   0.80813795
C    1.39893290  -1.78075440   0.91157246
N    0.75538669  -0.90292152   1.27205725
C   -0.63708054  -1.18792492  -3.81960168
H   -1.58888755  -1.64696893  -3.65154751
H    0.10593682  -1.94615877  -3.95341400
H   -0.68553459  -0.57726424  -4.69689572
C   -0.26684125  -0.31484810  -2.60623457
N    0.00881873   0.33519728  -1.70282761
Na   0.01077285   1.27779764   0.52566429
