43
Energy:   -477.54569572
C   -0.95327011  -3.08154299  -1.94632194
H   -1.84183419  -3.59652767  -1.64608065
H   -0.20380369  -3.79397320  -2.22135351
H   -1.17148227  -2.45216289  -2.78367684
C   -0.43901016  -2.22081842  -0.77743789
N   -0.05612025  -1.57996985   0.09284942
C   -3.09146957   1.74858060  -2.13145900
H   -3.15703183   2.70003234  -2.61657894
H   -3.78260754   1.71600230  -1.31526904
H   -3.32885507   0.97446322  -2.83095131
C   -1.66072670   1.54023971  -1.60120537
N   -0.59547360   1.38512045  -1.20640744
C    4.25879390  -2.04193246   3.25041917
H    5.23401208  -2.25876032   2.86722814
H    3.71968191  -2.95540704   3.39120812
H    4.34875533  -1.53285557   4.18724721
C    3.50164846  -1.14783044   2.25096314
N    2.93791926  -0.48213084   1.50682270
C   -6.20314770  -2.32276696  -0.35615088
H   -6.15424830  -3.30967977   0.05435142
H   -6.60199197  -2.36838459  -1.34798824
H   -6.83558779  -1.71323988   0.25490997
C   -4.78924517  -1.71395724  -0.39893385
N   -3.73653048  -1.26067073  -0.43078771
C   -2.39094542  -0.05466905   3.02094682
H   -2.55289150  -1.00052334   2.54762527
H   -3.20462292   0.60192440   2.79354176
H   -2.32875705  -0.19194425   4.08028021
C   -1.07627919   0.55922513   2.50482022
N   -0.09745043   1.01629724   2.12054051
C    4.27790707   0.61652586  -3.56090222
H    4.78793853   1.45546894  -3.13552873
H    3.81377514   0.90950587  -4.47940282
H    4.97950067  -0.16880418  -3.75043387
C    3.20207384   0.11769006  -2.57838214
N    2.40106709  -0.25371586  -1.84685128
C    3.05485347   4.69457352   1.61723542
H    2.96902687   5.59067829   1.03884954
H    4.06002273   4.59232107   1.96948290
H    2.38757067   4.74372475   2.45223057
C    2.69207505   3.48127643   0.74093525
N    2.42197003   2.57792159   0.08848995
Na   1.20479083   0.48069574   0.13112594
