43
Energy:   -478.69565474
C   -2.99673036  -1.35630145  -1.92431608
H   -3.21786126  -0.41647957  -2.38554936
H   -3.90842884  -1.83099224  -1.62703906
H   -2.47923624  -1.98241761  -2.62079112
C   -2.11110598  -1.12460288  -0.68593599
N   -1.45171838  -0.95209277   0.23609428
C    1.80768810   1.32701822  -3.36084627
H    1.05558941   1.24080757  -4.11703107
H    2.48829526   0.50512784  -3.43939044
H    2.34097733   2.24543515  -3.49127644
C    1.14304346   1.31217101  -1.97173610
N    0.64818531   1.30111658  -0.93748044
C    4.06173551   2.72312210   3.48885616
H    4.61867218   3.34205856   2.81681495
H    4.62507282   1.84100728   3.71117038
H    3.87003753   3.26133895   4.39355147
C    2.72527784   2.32727158   2.83404073
N    1.73022436   2.03254287   2.34650087
C    1.98957097  -3.46062586  -0.21473190
H    3.03007911  -3.65873132  -0.36638024
H    1.49388113  -3.41275725  -1.16177957
H    1.55943556  -4.24390886   0.37378349
C    1.82451304  -2.11705273   0.51954810
N    1.70161990  -1.11670146   1.06625293
C    0.08939919  -3.05606397  -5.72835734
H    0.91743981  -3.72261050  -5.85068740
H    0.11148167  -2.31455974  -6.49944938
H   -0.82507023  -3.60813474  -5.79050752
C    0.18200996  -2.36937660  -4.35304512
N    0.25096288  -1.85810664  -3.32906266
C   -3.01542685   4.66021419   1.01330508
H   -2.37087829   5.46401432   1.30203106
H   -3.86656755   4.63519411   1.66124997
H   -3.33951173   4.80774105   0.00429373
C   -2.25164726   3.32702234   1.11742147
N   -1.68297863   2.33440041   1.19494086
C   -2.03498377  -1.37059536   5.47540510
H   -2.22197802  -0.67449298   6.26621153
H   -1.39942682  -2.15381459   5.83252424
H   -2.96177047  -1.78787702   5.14097792
C   -1.34669750  -0.64463725   4.30457341
N   -0.83423708  -0.10412844   3.43283601
Na   0.05106294   0.64945770   1.32300974
