43
Energy:   -477.74355378
C    2.75345592   0.12283109   2.92194286
H    2.93082927   0.82025366   3.71380184
H    3.60776186   0.08882011   2.27858938
H    2.57897254  -0.84876558   3.33480427
C    1.51973236   0.56638804   2.11399272
N    0.60116910   0.89663634   1.51243711
C   -4.79328242   0.42381940  -3.68219114
H   -5.63182450  -0.11946189  -3.29931676
H   -4.37800658  -0.10242565  -4.51616430
H   -5.11143544   1.39590451  -3.99640172
C   -3.72619101   0.56406217  -2.58071582
N   -2.93169295   0.66847929  -1.76061737
C    2.54036285  -1.24864705  -2.46683003
H    2.52640175  -0.85039748  -3.45985699
H    2.72776498  -2.30132920  -2.50732481
H    3.31276208  -0.77035290  -1.90155733
C    1.17905750  -0.99513892  -1.79290023
N    0.16550379  -0.80639060  -1.29112886
C    0.55752854   4.99192510  -2.11361370
H   -0.34367518   5.55698741  -2.22953014
H    1.08903360   4.97375779  -3.04209171
H    1.16871673   5.44557999  -1.36158622
C    0.20996352   3.55187864  -1.69282308
N   -0.04881444   2.47969859  -1.37952533
C   -4.43114428   2.87281584   3.01677261
H   -4.44153629   2.09952754   3.75624363
H   -5.38940710   2.92692566   2.54379948
H   -4.21045329   3.80990918   3.48373155
C   -3.35463356   2.55918078   1.96114118
N   -2.55312240   2.32566523   1.17517559
C    5.21479671  -4.18880125   0.87455672
H    4.87616673  -5.18536885   1.06712603
H    5.85897059  -3.87146029   1.66779931
H    5.75130748  -4.16699687  -0.05095927
C    4.00286527  -3.24260296   0.78777554
N    3.10052722  -2.53811532   0.72316300
C   -0.72203876  -3.58464603   1.43899325
H   -0.05332830  -3.75447495   0.62113957
H   -1.46776648  -4.35180119   1.45518605
H   -0.17348970  -3.60101999   2.35753825
C   -1.40069327  -2.21252065   1.27076718
N   -1.90598241  -1.19091094   1.14551523
Na  -1.20513205   0.79058220  -0.09685752
