43
Energy:   -477.66085123
C   -0.40057225  -4.36065520   4.19301751
H   -0.10453962  -3.94267445   5.13246254
H    0.09094113  -5.30025372   4.04995002
H   -1.46037719  -4.50785085   4.18623442
C   -0.00872221  -3.39806211   3.05658974
N    0.28302796  -2.68136780   2.21046761
C    1.79044046   2.88480570   2.17942050
H    0.89108152   3.32851276   2.55248580
H    2.24442424   3.54284687   1.46823864
H    2.46722421   2.71452982   2.99051172
C    1.45738447   1.54417943   1.49868934
N    1.20940915   0.54602224   0.99185404
C   -0.41411309   6.76967892  -0.45621843
H   -0.62145774   7.17560244   0.51183863
H   -1.20624249   7.02692095  -1.12797482
H    0.50787813   7.17147396  -0.82144715
C   -0.30259555   5.23692904  -0.35701337
N   -0.21956567   4.09572709  -0.28315070
C    0.65610559   2.18935291  -2.93970347
H    1.49591664   2.53134373  -2.37167190
H   -0.08841661   2.95712449  -2.97305900
H    0.97067425   1.95409018  -3.93499091
C    0.06621610   0.93072487  -2.27676618
N   -0.37298344  -0.00638091  -1.78317923
C   -3.68916590   1.49006466   0.43763008
H   -3.33888168   1.98630988  -0.44324552
H   -3.76131385   2.19502806   1.23932850
H   -4.65283901   1.06530978   0.24837757
C   -2.70250354   0.37254967   0.82396887
N   -1.96788857  -0.45949103   1.11161567
C    4.62180913  -3.12344368  -0.89101295
H    4.84080410  -3.44239988  -1.88861424
H    4.74334953  -3.94679228  -0.21853686
H    5.28993727  -2.33496017  -0.61388908
C    3.17008510  -2.61420459  -0.82192682
N    2.08921057  -2.23505295  -0.77048906
C   -2.52094106  -4.59254021  -2.72097666
H   -3.10973424  -3.92054695  -3.30974473
H   -3.15933500  -5.31981685  -2.26444521
H   -1.80907969  -5.08667344  -3.34865877
C   -1.77925589  -3.80178958  -1.62725981
N   -1.22703757  -3.21303979  -0.81293791
Na   0.03164231  -1.42113105   0.17423158
