43
Energy:   -477.54690707
C    1.35816336   3.36070273   1.99532392
H    2.37026682   3.55324919   2.28424024
H    0.73646660   3.34019958   2.86593971
H    1.02248708   4.13323645   1.33546623
C    1.27939233   2.00121547   1.27616501
N    1.22074371   0.98901542   0.74071852
C   -1.56552192  -4.71078493  -3.07941376
H   -1.10627611  -4.77627834  -4.04362539
H   -2.55973659  -4.32909102  -3.18307691
H   -1.60140724  -5.68330506  -2.63464872
C   -0.74391719  -3.76617360  -2.18259990
N   -0.13219512  -3.06286752  -1.51488122
C    4.39888002  -0.60971287  -3.52485299
H    4.35575998  -1.44542169  -4.19166001
H    5.18057317  -0.76333877  -2.81053234
H    4.59566779   0.28190017  -4.08270589
C    3.05265714  -0.46906643  -2.79034461
N    2.05033302  -0.36434877  -2.24346974
C   -3.12199949  -0.63922154   2.60579777
H   -2.98790806   0.36186129   2.95900143
H   -3.37066105  -1.27722627   3.42799998
H   -3.91328765  -0.66044275   1.88585903
C   -1.81823837  -1.13124081   1.95026441
N   -0.84752895  -1.49757152   1.46219003
C   -1.00907481   2.83187596  -2.09527980
H   -1.99045140   3.22712111  -2.25522180
H   -0.44460936   2.90108375  -3.00163961
H   -0.51963386   3.39263793  -1.32658437
C   -1.11346373   1.35633028  -1.66694829
N   -1.19118602   0.25771944  -1.34803602
C    3.52257407  -3.97894919   2.34580972
H    3.79706420  -4.88268442   1.84299963
H    2.80308462  -4.19854930   3.10673667
H    4.39102628  -3.54103237   2.79181276
C    2.91311738  -2.99245715   1.33240161
N    2.45934917  -2.25796898   0.57787321
C   -4.09075284   4.64544287   2.08802696
H   -4.99504760   4.07801929   2.01604333
H   -4.16370214   5.51315790   1.46621661
H   -3.93825333   4.94615499   3.10351463
C   -2.90373508   3.78044546   1.62502768
N   -2.01994641   3.13641557   1.28030367
Na   0.64092757  -1.05005152  -0.39021141
