43
Energy:   -477.65512405
C    0.35571541   1.54183637   3.80327394
H    0.22826228   0.70457786   4.45722660
H   -0.14179856   2.39497846   4.21501113
H    1.39877244   1.75475012   3.69557592
C   -0.24602262   1.21253866   2.42447941
N   -0.69404393   0.96736155   1.39790421
C    3.56588751   0.97767676  -0.63571439
H    3.48911696  -0.01367185  -0.24044942
H    4.00876258   1.62022315   0.09633404
H    4.17576667   0.96490974  -1.51479545
C    2.16119812   1.49806711  -0.99298403
N    1.11534302   1.88552139  -1.25898752
C    4.76802738  -2.02396267   3.95732119
H    4.36054591  -2.80873375   4.55981051
H    5.30509396  -1.33886675   4.57949653
H    5.43249912  -2.44121302   3.22980586
C    3.62517708  -1.27997505   3.24179648
N    2.77427308  -0.72604244   2.70905582
C   -0.55991238  -1.56014831  -5.54671661
H    0.44752231  -1.92066625  -5.54824038
H   -0.71484918  -0.93093453  -6.39817636
H   -1.23538766  -2.38895612  -5.58806710
C   -0.81469309  -0.75400435  -4.25954192
N   -1.00438891  -0.15379352  -3.30118185
C   -5.25445817  -1.13861064   0.40486551
H   -5.31030855  -0.88754812   1.44349370
H   -5.61041709  -2.13716331   0.25965914
H   -5.85846364  -0.45907014  -0.15931638
C   -3.79244167  -1.04081374  -0.06899473
N   -2.70390394  -0.96799951  -0.42180522
C    0.77723226  -3.19094633   1.39843304
H    1.79708929  -3.30504019   1.70137595
H    0.41178451  -4.12199466   1.01830670
H    0.18663810  -2.89254087   2.23929677
C    0.68538603  -2.11620172   0.29930234
N    0.61700234  -1.31600551  -0.51905043
C   -2.90221108   4.78123351  -2.49177827
H   -3.28000256   4.66113757  -3.48563477
H   -1.99623879   5.34979903  -2.52087391
H   -3.62648217   5.29465604  -1.89451134
C   -2.61998715   3.39682546  -1.87910870
N   -2.40985861   2.36607074  -1.42294835
Na  -0.91122661   0.54273983  -0.98294766
