43
Energy:   -477.89439637
C   -0.38175490   0.98045341   3.81646229
H   -1.03150004   0.25191300   4.25459506
H   -0.61534915   1.94830609   4.20837299
H    0.63422039   0.73753302   4.04815815
C   -0.57265181   0.98564639   2.28834861
N   -0.71478324   0.98951280   1.15059852
C    1.31305344  -3.85471638   5.32117873
H    1.82694273  -4.72698703   4.97482357
H    0.34920040  -4.13283498   5.69338358
H    1.87877275  -3.39490675   6.10440019
C    1.14645166  -2.86079619   4.15671898
N    1.02240907  -2.12077742   3.28972577
C    0.81483561   5.62996362  -1.96987341
H    1.64010698   5.97113108  -1.38043970
H   -0.05425378   6.20837324  -1.73529926
H    1.04791282   5.74147361  -3.00820844
C    0.54244335   4.14596637  -1.66140198
N    0.33963494   3.04106297  -1.43173097
C    1.31389249  -0.94201996  -5.71077370
H    1.85486589  -0.24514871  -6.31626394
H    0.48627671  -1.33031491  -6.26681168
H    1.96112339  -1.74535379  -5.42679129
C    0.79491368  -0.22993770  -4.44776149
N    0.40851036   0.30023992  -3.50739149
C   -5.01263293   1.78033547  -2.73441444
H   -5.01488720   2.71967094  -3.24680489
H   -5.67930301   1.82823580  -1.89885735
H   -5.33328315   1.00871511  -3.40275907
C   -3.58838273   1.47000987  -2.23761528
N   -2.52796372   1.23895836  -1.86772573
C    3.52641210  -0.34739071   1.71609960
H    4.44070989   0.19923381   1.61529595
H    3.74156378  -1.39355990   1.78043367
H    3.01857743  -0.03245697   2.60369172
C    2.63174989  -0.08168850   0.49111721
N    1.96563321   0.11613887  -0.42093787
C   -1.41923608  -3.86058232   0.67412571
H   -2.45587039  -4.10793633   0.57870301
H   -1.18589350  -3.69326841   1.70488096
H   -0.82415324  -4.66736445   0.30012292
C   -1.11957041  -2.58421895  -0.13377096
N   -0.89645569  -1.63390840  -0.73528676
Na  -0.27228797   0.69329502  -1.23031749
