43
Energy:   -477.84617566
C    5.64645939  -0.76745683  -1.27261033
H    5.93166761   0.26156975  -1.20434066
H    6.05728427  -1.19303721  -2.16423994
H    6.01753107  -1.29770374  -0.42052870
C    4.11062344  -0.87280929  -1.31394817
N    2.96712377  -0.95124898  -1.34472608
C    0.43562558  -1.06608687   3.89117099
H    1.17809917  -1.74439438   4.25659138
H   -0.53826896  -1.45852685   4.09713065
H    0.54834005  -0.11890453   4.37598039
C    0.60647447  -0.88824511   2.37104502
N    0.73367923  -0.75583383   1.23924214
C   -3.22986559   2.47964845   5.39765089
H   -4.17574755   1.99865809   5.53496725
H   -3.38375182   3.52111807   5.20644644
H   -2.63866726   2.36289123   6.28181794
C   -2.49790387   1.84101925   4.20266771
N   -1.95292510   1.36553078   3.31294842
C   -3.61363793  -0.54478946   0.88153727
H   -4.24366264   0.27438091   1.15889797
H   -3.17543078  -0.97098871   1.75973302
H   -4.19565853  -1.28745928   0.37696551
C   -2.49988750  -0.04148386  -0.05539573
N   -1.67064968   0.33325004  -0.75298493
C   -0.37940690   3.85160780   0.59608530
H    0.01020583   3.99919441   1.58164113
H   -1.38969920   3.50504662   0.66014701
H   -0.35316332   4.77718472   0.05987850
C    0.47613809   2.80584171  -0.14284370
N    1.11313022   2.02722132  -0.69300993
C    0.29921963  -5.01088300  -2.60622344
H    0.18403097  -5.78893307  -1.88077886
H    1.28493393  -5.05248141  -3.02039246
H   -0.42128305  -5.14120914  -3.38647345
C    0.08329833  -3.64362724  -1.93124960
N   -0.07746490  -2.62564318  -1.42870090
C    0.33845466   1.27521490  -5.87737545
H    1.33758309   1.39986562  -6.23945935
H   -0.11945124   2.23471245  -5.75660400
H   -0.22553176   0.69660952  -6.57882696
C    0.37121769   0.54760976  -4.52049766
N    0.39561125   0.00587467  -3.51024046
Na   0.65532583  -0.34230411  -1.14109419
