43
Energy:   -477.75853766
C    2.70457466  -3.91212671  -2.95496613
H    1.86603990  -4.38642756  -3.42058220
H    3.15986269  -4.59061633  -2.26412335
H    3.41709479  -3.63301653  -3.70283755
C    2.23066628  -2.65467796  -2.20274708
N    1.87781995  -1.71845021  -1.64268581
C   -6.45591629   1.48456098  -0.40100942
H   -6.95208818   0.82343408   0.27842039
H   -6.74439170   1.24774944  -1.40380617
H   -6.73040876   2.49487587  -0.18006420
C   -4.93154406   1.32282260  -0.25359844
N   -3.79657964   1.20240103  -0.14384426
C   -0.90327893   3.43725526   1.30323101
H   -1.26228587   3.36537698   0.29782178
H   -0.28880941   4.30773481   1.40116799
H   -1.73366290   3.50951920   1.97415536
C   -0.07582044   2.18385812   1.64368375
N    0.54026001   1.25064698   1.89716629
C   -3.22682125  -1.83677248   1.32766313
H   -3.51977518  -1.00427071   1.93265814
H   -3.33027097  -2.74075991   1.89069419
H   -3.85064017  -1.88387333   0.45960175
C   -1.75846075  -1.66609627   0.89593741
N   -0.66519962  -1.53902006   0.57449799
C    5.63056403   2.28269802  -0.83126336
H    6.18630467   2.41513205   0.07345414
H    5.46933781   3.23421857  -1.29333894
H    6.17958639   1.65093639  -1.49785977
C    4.27257398   1.63187707  -0.50893572
N    3.26148866   1.14731129  -0.26894814
C    3.09909694  -2.15662130   4.40494931
H    2.75442717  -3.14962117   4.60508473
H    2.60154342  -1.46840549   5.05587064
H    4.15483664  -2.10521750   4.57129360
C    2.79179237  -1.79194249   2.94064973
N    2.56299014  -1.52042253   1.85041213
C   -2.04203043   0.79723332  -3.11466516
H   -2.68429432   1.64869834  -3.02861523
H   -2.60128445  -0.09295795  -2.91543281
H   -1.64056936   0.75197941  -4.10546291
C   -0.89054459   0.91810217  -2.09924845
N   -0.03321104   1.00809453  -1.34322456
Na   1.35702782  -0.26521999   0.19884618
