43
Energy:   -477.49321469
C   -3.20724003   0.09259457   2.23886218
H   -3.58577714   0.44933637   3.17392642
H   -3.43033300  -0.94899757   2.13779569
H   -3.66553220   0.63482405   1.43832825
C   -1.68174160   0.29786237   2.19069920
N   -0.54593868   0.45069358   2.15483968
C   -1.74158336  -1.62108714  -2.91957396
H   -1.23814394  -2.42000623  -3.42274114
H   -1.58842939  -0.70851419  -3.45683884
H   -2.78893067  -1.83446065  -2.87023375
C   -1.17918884  -1.47756515  -1.49314000
N   -0.76046055  -1.37070651  -0.43109508
C   -6.00001441   1.41532145  -2.21960937
H   -6.34812036   2.40666572  -2.01722614
H   -6.53986883   0.71725430  -1.61449900
H   -6.15589691   1.18662435  -3.25319409
C   -4.49765831   1.32237432  -1.89420658
N   -3.37908590   1.25317096  -1.65192941
C    4.17695424   2.62825540   3.23184821
H    4.53247892   3.49313652   2.71176839
H    5.00075011   2.12754372   3.69611890
H    3.47306738   2.92652994   3.98049678
C    3.49268392   1.67482955   2.23467557
N    2.98321356   0.96496066   1.49223522
C    1.84406212  -4.37926369   3.64305056
H    1.52022173  -4.11913455   4.62913393
H    2.85985762  -4.71369963   3.67785290
H    1.22384165  -5.16194397   3.25881466
C    1.74081769  -3.14584070   2.72674911
N    1.66394752  -2.22750123   2.04452104
C   -0.80574617   3.58830169  -1.73112025
H   -0.16728508   4.43091490  -1.89625837
H   -1.54053486   3.83660618  -0.99401133
H   -1.29346753   3.32553287  -2.64653246
C    0.03484921   2.39638428  -1.23682046
N    0.66071069   1.50894759  -0.86879181
C    4.71766817  -1.47387180  -2.74632046
H    4.41502562  -1.61208502  -3.76327905
H    5.31397799  -2.30612294  -2.43539971
H    5.29063720  -0.57397907  -2.66386651
C    3.47035750  -1.37230120  -1.84882421
N    2.54167801  -1.29667728  -1.18059746
Na   1.18417690  -0.36490683   0.59439275
