43
Energy:   -477.61889799
C    0.24515639  -3.04487244   5.05744249
H   -0.78346837  -3.33856804   5.03348040
H    0.45465927  -2.55490735   5.98531201
H    0.86577809  -3.91142979   4.96360146
C    0.53084876  -2.08015725   3.89155036
N    0.74355971  -1.36188294   3.02349066
C    1.35358553   4.27973786   3.80738195
H    2.15843369   4.30545233   4.51197997
H    0.42056306   4.30229262   4.33069777
H    1.41964353   5.12858498   3.15931251
C    1.44298672   2.98855864   2.97283797
N    1.50954998   2.02721702   2.35148204
C    5.71136422  -0.24533846   1.08103560
H    6.11384867  -1.23100857   1.18762301
H    5.88482512   0.30979532   1.97916526
H    6.18778309   0.24753955   0.25945454
C    4.19674374  -0.33506401   0.81745614
N    3.06903995  -0.40186876   0.62120925
C   -4.59008735  -0.49280001  -4.71766952
H   -5.37630171  -0.92028391  -4.13113335
H   -4.41351504  -1.10461815  -5.57755316
H   -4.87322338   0.49020519  -5.03141122
C   -3.30515201  -0.41177450  -3.87269849
N   -2.34845924  -0.35144733  -3.24357915
C   -3.92016113   0.92677995   0.13042981
H   -4.74561938   0.70028592   0.77247289
H   -3.91246724   0.24533512  -0.69447797
H   -4.01661035   1.92787330  -0.23482181
C   -2.60437465   0.79270687   0.91930898
N   -1.62471181   0.69288337   1.50666538
C    0.70900950   1.50535746  -3.62420726
H    0.00904186   2.23501682  -3.97426826
H    0.44622891   0.54373378  -4.01295569
H    1.69242086   1.76712481  -3.95478107
C    0.67926999   1.46246332  -2.08509204
N    0.65712758   1.43052668  -0.93915080
C   -0.13425364  -3.03954681  -2.67779896
H   -0.32519796  -2.36617724  -3.48712823
H   -0.91373984  -3.77105753  -2.63097557
H    0.80461680  -3.52831204  -2.83441936
C   -0.08883064  -2.25240907  -1.35494185
N   -0.05501114  -1.66634925  -0.37001461
Na   0.72509988   0.10040252   1.08568793
