43
Energy:   -477.78244020
C    1.40228324   2.34131403   4.93442075
H    1.59318082   3.38080376   4.76732977
H    2.32722608   1.80340365   4.92874229
H    0.92188544   2.21473382   5.88209923
C    0.48771923   1.80159464   3.81912902
N   -0.19321525   1.39974902   2.98874363
C   -2.30835519  -3.28433059   3.96804623
H   -2.69491231  -2.65753460   4.74431974
H   -1.66675738  -4.02649853   4.39517396
H   -3.11885942  -3.76338962   3.45963259
C   -1.50890149  -2.42879281   2.96778182
N   -0.91367186  -1.79180604   2.22303951
C    1.84478598   3.03001824  -1.87546373
H    2.59338110   2.26596763  -1.90252289
H    2.25503286   3.91594734  -1.43759820
H    1.51673659   3.24336210  -2.87133876
C    0.64906357   2.54754778  -1.03340069
N   -0.24120613   2.18832659  -0.40644649
C    3.55028640  -0.23028308  -5.26914881
H    4.00345171   0.73815089  -5.22819735
H    2.95342438  -0.30765315  -6.15383446
H    4.31300497  -0.98051650  -5.28673595
C    2.65935606  -0.43297408  -4.02948777
N    1.99601793  -0.58388674  -3.10650378
C   -5.09516006   2.45852787   1.32498372
H   -4.72765712   3.45720988   1.21328768
H   -5.56985796   2.35772989   2.27860878
H   -5.80326741   2.25032185   0.55030099
C   -3.92173210   1.46590530   1.22819915
N   -3.04806164   0.72685267   1.15613864
C    2.49657921  -2.64524436  -0.23994382
H    3.52524960  -2.59342957  -0.52986215
H    1.90059242  -2.91542838  -1.08652485
H    2.37913887  -3.38074965   0.52826111
C    2.04286376  -1.27237564   0.29012577
N    1.70505198  -0.25021248   0.68478668
C   -1.32472416  -1.86824081  -3.63680025
H   -2.34828637  -2.12477366  -3.81403309
H   -0.70612975  -2.72172000  -3.82068420
H   -1.03799047  -1.07216157  -4.29173591
C   -1.15455514  -1.41641144  -2.17444163
N   -1.02785656  -1.08000393  -1.08564917
Na  -0.70515445   0.24095028   0.94720291
