43
Energy:   -477.51713334
C    4.01493124  -0.01697830  -0.97349435
H    4.65169346   0.84208972  -1.01139151
H    4.00718981  -0.49765213  -1.92941895
H    4.37982089  -0.69907370  -0.23423763
C    2.58444067   0.42012519  -0.60711034
N    1.51937541   0.74556860  -0.33432079
C    3.70585052  -5.11721884  -1.67138326
H    4.69189124  -5.06557147  -1.25912555
H    3.76593931  -5.12654065  -2.73965361
H    3.22432964  -6.01098675  -1.33342519
C    2.89323469  -3.89177615  -1.21362162
N    2.28820527  -2.97937836  -0.87279727
C    0.28983233   4.49188970   3.77213835
H    1.20243781   5.03480745   3.64064026
H    0.40573046   3.78711071   4.56885241
H   -0.49950350   5.17363590   4.01103195
C   -0.05439107   3.74364266   2.47089409
N   -0.31068105   3.18653873   1.50205860
C   -1.47402684   3.92594686  -3.53050721
H   -2.44962089   3.90370135  -3.96939394
H   -0.73692393   3.77849375  -4.29197682
H   -1.31611234   4.87389924  -3.06003045
C   -1.35805650   2.80584122  -2.48002436
N   -1.27171131   1.97187165  -1.69789212
C   -5.52583471   1.15315084   2.15422393
H   -5.51709687   1.18009827   3.22384894
H   -6.01213008   0.25910354   1.82392809
H   -6.05384740   2.00536192   1.78027479
C   -4.07856271   1.17457959   1.62834887
N   -3.00100293   1.19053427   1.23681099
C   -0.62156197  -2.59619461  -2.69130668
H    0.33863891  -2.31368873  -3.06959872
H   -1.36748493  -2.40745281  -3.43486204
H   -0.61647499  -3.63806317  -2.44762018
C   -0.93728403  -1.77492564  -1.42740919
N   -1.17235345  -1.16345356  -0.48638006
C    0.25055766  -2.75365732   2.39529416
H   -0.18086917  -3.19916690   3.26724157
H    1.29182736  -2.99559194   2.34920578
H   -0.24172264  -3.12869345   1.52242126
C    0.08135515  -1.22447716   2.46295910
N   -0.04462382  -0.08593302   2.51333873
Na  -0.74540471   1.03848346   0.44346996
