43
Energy:   -477.54597622
C   -3.83403243   1.94339114   4.23565874
H   -4.31802571   2.79264700   3.80044020
H   -3.61828818   2.14410872   5.26428207
H   -4.47764665   1.09145784   4.16587712
C   -2.52162866   1.65836091   3.48203144
N   -1.54448439   1.44614294   2.92092166
C    1.17295293  -3.72622603   4.39215478
H    2.02410180  -3.41820656   4.96274202
H    1.46671160  -4.48031573   3.69218788
H    0.42675013  -4.12105557   5.04956644
C    0.59911515  -2.51595678   3.63218204
N    0.17186684  -1.61485632   3.06634779
C    3.42490793   2.93268581   3.29980624
H    4.43920802   2.59371886   3.26520969
H    3.11098618   3.01513972   4.31939124
H    3.35213139   3.88917363   2.82574537
C    2.52162889   1.92524356   2.56445115
N    1.84909659   1.17515702   2.01694587
C    0.04741568  -0.18056403  -6.59901318
H    0.44424567  -1.10342366  -6.96746433
H    0.65008350   0.63160795  -6.94839444
H   -0.95549920  -0.05771138  -6.95110415
C    0.05233373  -0.19807259  -5.05912056
N    0.05599544  -0.21110850  -3.91260051
C   -1.12655834   2.87191463  -2.74939557
H   -1.75488271   3.71526697  -2.55225222
H   -1.64110364   2.18554697  -3.38895921
H   -0.22808481   3.20077126  -3.22845477
C   -0.77480996   2.17266508  -1.42315157
N   -0.51291730   1.65204201  -0.43570263
C    2.93082247  -1.20571404  -2.06236731
H    2.63679909  -0.55530206  -2.85949634
H    3.09297270  -2.19084748  -2.44722898
H    3.83493944  -0.84215169  -1.62044649
C    1.81936669  -1.24722344  -0.99721803
N    0.99183733  -1.27812908  -0.20416597
C   -2.28815386  -2.65182200  -1.76382112
H   -3.15425187  -2.36697695  -2.32385478
H   -2.35515491  -3.68808746  -1.50582140
H   -1.41137157  -2.48733700  -2.35466510
C   -2.20709963  -1.80707229  -0.47874208
N   -2.14675108  -1.17811772   0.47805767
Na  -0.24552430   0.08923636   1.39944130
