43
Energy:   -477.54433499
C   -3.71142560  -3.96595504  -1.92040382
H   -4.17370735  -3.93691243  -2.88495153
H   -4.38878024  -3.57826188  -1.18843128
H   -3.46147442  -4.97698943  -1.67497978
C   -2.43094170  -3.11060774  -1.93889660
N   -1.47756323  -2.47376281  -1.95266533
C    2.47676270   3.18436053   1.01707711
H    3.43785948   3.36261993   0.58185676
H    2.59081991   2.97549217   2.06027606
H    1.86224879   4.05132767   0.89201822
C    1.81378416   1.98062784   0.32203247
N    1.32016650   1.08439413  -0.19545986
C   -0.45731798   2.82734738   5.66136393
H   -0.84785445   3.82352448   5.65781054
H    0.48286484   2.81465505   6.17204413
H   -1.14385361   2.17688776   6.16183392
C   -0.26029939   2.34803924   4.21117519
N   -0.11361009   1.99117255   3.13144375
C   -2.41092887   2.88889341   0.53822978
H   -1.50310471   3.45338220   0.49231795
H   -2.82070370   2.95206026   1.52463417
H   -3.11296973   3.28461288  -0.16564793
C   -2.11733304   1.41599566   0.19768065
N   -1.89873759   0.31935634  -0.05587365
C    0.24268941  -1.96614066   3.59843489
H    1.15388568  -2.37166313   3.98595658
H   -0.57802394  -2.58486310   3.89594328
H    0.10103386  -0.97719134   3.98159548
C    0.31633985  -1.91534131   2.06103610
N    0.37117596  -1.87751889   0.91637282
C   -0.15266268   1.04018767  -5.73429145
H    0.87024060   1.24068042  -5.97589382
H   -0.75614595   1.87822193  -6.01430147
H   -0.48080929   0.17109269  -6.26522723
C   -0.28402840   0.79633178  -4.21940619
N   -0.38183615   0.61476998  -3.09150525
C    4.06265986  -3.36640050  -2.09875982
H    4.77081046  -3.03753324  -1.36713885
H    4.52781747  -3.38518885  -3.06217795
H    3.72131665  -4.34907208  -1.84827934
C    2.86525006  -2.39836811  -2.12564988
N    1.97372404  -1.67762400  -2.14567075
Na   0.00266185  -0.72663942  -1.13552201
