43
Energy:   -477.90674897
C   -5.26107447  -1.49722426   2.57249888
H   -6.15365141  -1.60854152   1.99300337
H   -5.38881664  -0.70002982   3.27468266
H   -5.06155385  -2.40735227   3.09857645
C   -4.07973611  -1.17447011   1.63875939
N   -3.20017600  -0.93416497   0.94354789
C   -4.15920413   1.32835551  -3.71829545
H   -4.73366996   0.46907376  -3.99492526
H   -3.67892784   1.73064780  -4.58570233
H   -4.80544119   2.06768773  -3.29324884
C   -3.09354141   0.92199230  -2.68348537
N   -2.30010707   0.61943642  -1.91302222
C    0.49198380   3.71822421   0.97078499
H    1.25612252   3.80123257   1.71516513
H   -0.31096846   4.38445441   1.20806979
H    0.89683766   3.97411900   0.01396196
C   -0.03484159   2.27158097   0.93503111
N   -0.42708704   1.19448932   0.90841073
C    2.87124039   1.35513924  -2.13956557
H    3.01921727   1.38875093  -3.19875076
H    3.77265917   1.02980451  -1.66364480
H    2.61249469   2.33076180  -1.78444536
C    1.73329344   0.37083341  -1.81120787
N    0.88604021  -0.36202701  -1.56673064
C    2.03950764  -1.29041249   3.08686612
H    1.74689230  -1.65310887   4.05005239
H    2.09979504  -0.22238836   3.11113492
H    2.99539902  -1.69582299   2.82838385
C    0.99811533  -1.72206990   2.03768839
N    0.22275141  -2.04345847   1.25652787
C   -0.92775488  -5.30881655  -2.38656548
H   -0.36314045  -5.24244667  -3.29304536
H   -1.82538485  -5.86310299  -2.56524416
H   -0.34498175  -5.80508086  -1.63890492
C   -1.28721974  -3.89232929  -1.90081980
N   -1.55485766  -2.83769015  -1.53916005
C    5.90977827   2.48145728   1.86390055
H    5.91279764   3.44783620   2.32325102
H    6.52389115   2.50101913   0.98789724
H    6.29365658   1.75802753   2.55251215
C    4.46906880   2.10363699   1.47248255
N    3.39639512   1.82233260   1.18105406
Na  -1.15580097  -0.81035609  -0.34747926
