43
Energy:   -477.53766848
C    0.09832593   5.73445382   0.69266674
H   -0.67931345   6.08851639   1.33672953
H   -0.08533733   6.07059889  -0.30641954
H    1.04051102   6.11391213   1.02911546
C    0.12584096   4.19493175   0.71940055
N    0.14632714   3.04868758   0.73930510
C   -2.39399509   1.37345056   5.25766738
H   -3.09272477   0.60671389   5.51994947
H   -2.81756866   2.33163783   5.47529477
H   -1.49438168   1.24456798   5.82245414
C   -2.07348764   1.28339922   3.75408309
N   -1.83485528   1.21635191   2.63459624
C    1.97230395  -0.02443045  -3.73036618
H    2.99245529  -0.14238329  -3.42990231
H    1.90744201   0.73365923  -4.48269061
H    1.60719246  -0.94990427  -4.12418200
C    1.12288741   0.38624223  -2.51322219
N    0.49045819   0.69200670  -1.60700316
C    3.75473360  -0.39538954   0.78207085
H    4.16308081  -1.31201754   1.15348148
H    4.30324522   0.42933438   1.18687272
H    3.82454053  -0.38053574  -0.28554586
C    2.27709977  -0.28449454   1.20147584
N    1.17693421  -0.20192817   1.51374192
C    3.52082526  -5.05326112  -1.96805403
H    3.33492991  -5.73847069  -1.16753486
H    4.57460276  -4.89446589  -2.06415890
H    3.13647078  -5.45835213  -2.88078181
C    2.82490563  -3.71258737  -1.66823782
N    2.30676184  -2.71439482  -1.44501102
C   -5.26714655   1.70930532  -1.59632136
H   -5.28770906   1.22672540  -2.55109567
H   -5.60627031   2.71887521  -1.69958218
H   -5.90779521   1.18546568  -0.91804382
C   -3.82740949   1.70477118  -1.04975332
N   -2.75545980   1.70139531  -0.64280857
C   -1.02100904  -4.07425540   0.13485467
H   -0.07995272  -4.23596219   0.61772535
H   -0.96863746  -4.42448994  -0.87484434
H   -1.78675297  -4.60780125   0.65817499
C   -1.34870435  -2.56953274   0.13990357
N   -1.59268841  -1.44919832   0.14366271
Na  -0.78067538   0.82885281   0.49233298
