43
Energy:   -477.72234413
C   -0.92475826  -4.66847304   3.29254979
H   -0.88291084  -5.56105865   2.70395833
H   -1.94636038  -4.41912069   3.49016462
H   -0.41090531  -4.82684091   4.21763024
C   -0.25420686  -3.51476456   2.52383816
N    0.24504914  -2.65577616   1.95149741
C   -2.65376705   2.44681398   0.98145522
H   -3.67008947   2.37589299   0.65440913
H   -2.13747002   3.17122488   0.38684164
H   -2.62963736   2.74584990   2.00853573
C   -1.96883179   1.07588639   0.82972776
N   -1.45886635   0.05516848   0.71675977
C   -1.81768751  -1.94410571  -2.84319570
H   -1.76904672  -1.26888309  -3.67181424
H   -2.67807660  -1.71778736  -2.24871298
H   -1.88848219  -2.94850041  -3.20524335
C   -0.54748308  -1.79607296  -1.98513568
N    0.39824186  -1.68585584  -1.34627099
C   -4.30834685   2.72637645  -4.26034494
H   -4.99809415   1.91042357  -4.31839445
H   -3.88847360   2.90797726  -5.22762292
H   -4.82073867   3.60327312  -3.92358696
C   -3.18246679   2.37729290  -3.26931782
N   -2.34419790   2.11738433  -2.53145309
C    2.80701286   1.34630194   4.83634035
H    3.25103078   0.48502414   5.29015619
H    2.25192849   1.89061722   5.57152830
H    3.57496874   1.97287645   4.43316887
C    1.86158143   0.90069135   3.70532725
N    1.15766476   0.56891401   2.86323660
C    0.97155724   3.39314329  -2.15634761
H    0.04287858   3.89199496  -1.97303607
H    0.96276174   2.97340329  -3.14054275
H    1.77539387   4.09465623  -2.07495130
C    1.16389575   2.26962538  -1.12082194
N    1.30710051   1.43311523  -0.34982601
C    5.13996967  -2.78174216  -0.50289515
H    4.72199110  -3.44382388  -1.23217006
H    5.67534578  -3.34959598   0.22909771
H    5.80869991  -2.09839831  -0.98324932
C    4.00853130  -1.99505733   0.18454517
N    3.16612401  -1.40933472   0.69637574
Na   0.88917021  -0.64873598   0.79778933
