43
Energy:   -477.78920839
C   -0.62978162  -2.03418315   2.90622707
H   -0.02639460  -2.07985745   3.78868848
H   -1.01999151  -3.00679823   2.69022888
H   -1.43903305  -1.35182065   3.06240851
C    0.22812134  -1.55069867   1.72223159
N    0.86686908  -1.19072250   0.84069314
C   -3.23823657  -3.40646386  -2.83052141
H   -3.33509764  -4.36542512  -2.36585871
H   -3.08594331  -3.53337051  -3.88199683
H   -4.12978649  -2.83837172  -2.66526663
C   -2.03484990  -2.66125249  -2.22379203
N   -1.13887383  -2.10640876  -1.77205442
C    4.25528093  -3.08867457  -2.90514244
H    4.56739548  -3.61170327  -2.02541199
H    5.06629722  -2.49654299  -3.27464461
H    3.95890891  -3.79403310  -3.65316119
C    3.06536413  -2.17294042  -2.56290130
N    2.17941699  -1.49113473  -2.30808722
C    0.31813302   2.41579139  -5.57948747
H    0.52101036   1.79590937  -6.42771341
H    1.15645731   3.05492683  -5.39613707
H   -0.54926372   3.01180439  -5.77259492
C    0.06798347   1.53026609  -4.34463114
N   -0.11826424   0.87095226  -3.42522448
C   -2.92080051   2.59336067   1.30128831
H   -3.52478165   3.17630442   0.63774965
H   -2.24914467   3.23673355   1.83029573
H   -3.54975404   2.08231028   1.99996136
C   -2.11297713   1.56391014   0.48934435
N   -1.51151590   0.79743743  -0.11518483
C    2.61512988   1.99257522   1.86675963
H    2.33059817   2.97600580   2.17789654
H    3.67899854   1.89397500   1.92472993
H    2.15448888   1.26890056   2.50629379
C    2.15644511   1.76063107   0.41506744
N    1.81493346   1.58793810  -0.66578338
C   -0.79549153   1.62096820   6.42028178
H    0.18896362   1.46604372   6.80982850
H   -1.46214564   0.89491387   6.83659475
H   -1.13110628   2.60335882   6.67945449
C   -0.76985305   1.47501073   4.88742853
N   -0.75076404   1.36633876   3.74614961
Na   0.33305501  -0.25596447  -1.34400659
