43
Energy:   -477.52960101
C   -4.52882632  -2.90072139   2.01252570
H   -4.43410401  -3.22022779   3.02930667
H   -4.70325696  -3.75065762   1.38636162
H   -5.35035309  -2.22045608   1.92748467
C   -3.23171919  -2.19667049   1.57272413
N   -2.26596397  -1.67247260   1.24527187
C    1.35551159  -2.94101283  -2.41908200
H    2.09194561  -3.17849389  -1.68005030
H    1.83794482  -2.55100855  -3.29089272
H    0.81178680  -3.82548164  -2.67788185
C    0.38380939  -1.88755645  -1.85550014
N   -0.33966706  -1.10321030  -1.43588784
C   -4.53604118   1.90581872  -3.08143619
H   -3.80264824   2.15685834  -3.81900930
H   -5.03706039   2.79481418  -2.75961961
H   -5.24831894   1.22773287  -3.50305101
C   -3.84533690   1.24095599  -1.87624528
N   -3.33107616   0.74593547  -0.97892586
C    6.20613768  -0.54080577  -1.79184387
H    6.71882178   0.16623082  -1.17365744
H    6.23978099  -0.21448352  -2.81031381
H    6.67906861  -1.49693423  -1.70785708
C    4.73916498  -0.65195996  -1.33661224
N    3.64693712  -0.73471930  -0.99767159
C    2.46906637   3.03211131  -1.07442439
H    2.47632364   4.10194661  -1.09174308
H    2.86961733   2.65779678  -1.99330776
H    3.06606201   2.68456715  -0.25729016
C    1.02289732   2.53128421  -0.90305542
N   -0.05384126   2.15839567  -0.77546343
C   -2.17024783   3.31980865   4.25250974
H   -1.63055590   4.22359007   4.06064531
H   -1.73822659   2.81799416   5.09300897
H   -3.19299817   3.55305108   4.46340970
C   -2.09679231   2.40558041   3.01542001
N   -2.04210134   1.72489592   2.09435047
C    2.36723314  -2.19495469   1.87979541
H    2.13807878  -2.67767953   2.80681493
H    3.38117175  -1.85356405   1.89652867
H    2.23752378  -2.88814981   1.07508732
C    1.42441330  -0.99385419   1.67967463
N    0.72244107  -0.09958026   1.53067562
Na  -1.30660204   0.34528652   0.26922696
