43
Energy:   -477.65999926
C    5.16742992  -0.40574856  -2.71724141
H    5.52803210   0.59139284  -2.57380057
H    5.36045045  -0.71350081  -3.72368600
H    5.66714540  -1.06659429  -2.04013989
C    3.65140763  -0.44682982  -2.44968066
N    2.52266013  -0.47741669  -2.25046952
C   -2.48202354   3.22139579   4.83000393
H   -2.04057616   4.16604515   5.07013300
H   -2.26239735   2.51763675   5.60549516
H   -3.54225603   3.33534326   4.74156108
C   -1.90753206   2.71069368   3.49555914
N   -1.47979704   2.33045276   2.50200433
C   -0.33152467   4.18686055  -0.25674475
H   -1.39261454   4.30922688  -0.19338103
H    0.05453293   4.81660526  -1.03087666
H    0.11495833   4.45584017   0.67770802
C   -0.00258401   2.71725066  -0.57868391
N    0.24232727   1.62305930  -0.81838225
C   -1.26153095  -0.81778597  -5.39238713
H   -0.40144409  -0.39078294  -5.86442440
H   -2.11956759  -0.21334789  -5.60053809
H   -1.42154574  -1.80622216  -5.76959831
C   -1.03417964  -0.87968104  -3.87051973
N   -0.86490625  -0.92576473  -2.73742028
C    0.69883620  -5.78472979  -0.23393954
H    0.42761779  -6.30863073  -1.12661448
H   -0.05454563  -5.93525062   0.51081438
H    1.63568655  -6.15532425   0.12643561
C    0.82513066  -4.28068492  -0.53971519
N    0.91916262  -3.16085515  -0.76737906
C    1.34585264  -0.19678098   3.91238296
H    2.28470274  -0.12932767   4.42121566
H    0.77789330  -1.00790920   4.31783614
H    0.80422133   0.71705597   4.04058845
C    1.59159186  -0.44168755   2.41197201
N    1.77455587  -0.62403162   1.29484786
C   -3.68306201   0.47681895   0.56575362
H   -4.02535082   0.60161167   1.57181790
H   -4.41944643  -0.05696445   0.00209382
H   -3.52144041   1.43709081   0.12229507
C   -2.36319087  -0.31661528   0.56727071
N   -1.38048682  -0.90736313   0.56840025
Na   0.59780692  -0.76455023  -0.82056623
