43
Energy:   -477.48708190
C   -2.77347450   3.83712591   3.37016061
H   -2.35722562   3.54698440   4.31220890
H   -3.76659595   3.44827747   3.28410396
H   -2.80172983   4.90484923   3.30638253
C   -1.90254110   3.27763946   2.22996329
N   -1.25409160   2.86107637   1.38103456
C    0.19722506  -2.77895542   2.82034975
H   -0.34553497  -3.27923986   2.04573551
H   -0.29711744  -2.93031631   3.75716054
H    1.19000145  -3.17459393   2.87292634
C    0.26102167  -1.27164692   2.51123640
N    0.30852115  -0.14938722   2.28108747
C    4.46741696   3.08013727   2.03382646
H    4.52421563   2.59387568   2.98525893
H    4.54637746   4.13862653   2.16897392
H    5.26782670   2.73943165   1.41079915
C    3.12003115   2.74691802   1.36665600
N    2.11684117   2.49882114   0.86991727
C   -0.28360927   4.98076463  -2.81950070
H   -1.26958268   5.18202311  -3.18316487
H    0.41491464   5.04691563  -3.62732958
H   -0.02776552   5.69732266  -2.06717918
C   -0.23812051   3.56458447  -2.21620598
N   -0.20425207   2.51017397  -1.76702564
C   -3.16634615  -1.76337270  -1.97353048
H   -3.95357337  -1.17070439  -2.39056495
H   -3.58706095  -2.57860553  -1.42280952
H   -2.55137819  -2.14499220  -2.76161681
C   -2.31290522  -0.89379782  -1.03168223
N   -1.67747966  -0.24635980  -0.33043340
C    1.90077456  -1.98123319  -2.96859119
H    2.47271082  -1.47610587  -3.71868150
H    0.94624769  -2.25141040  -3.36956728
H    2.42002736  -2.86381657  -2.65823301
C    1.70408280  -1.04912376  -1.75859765
N    1.55763684  -0.35512592  -0.85770246
C   -0.46387879  -6.44186582  -0.62816923
H   -0.92678062  -6.95925399  -1.44237533
H   -1.00821527  -6.63476542   0.27260080
H    0.54406555  -6.78291615  -0.51577721
C   -0.46489497  -4.92872221  -0.91451756
N   -0.46565156  -3.80211801  -1.12771691
Na   0.13986716   1.25288179   0.27059027
