43
Energy:   -477.55417579
C    3.44285891   0.74849282  -1.41162325
H    3.58342081   1.76416414  -1.71748973
H    2.83899276   0.23901616  -2.13320367
H    4.39381410   0.26381062  -1.33634728
C    2.74100482   0.71753090  -0.04120645
N    2.21844256   0.69447834   0.97913115
C    2.00591049  -4.67965959   3.22545278
H    1.28174781  -5.07998377   3.90385470
H    2.90372701  -4.44656530   3.75883035
H    2.21989012  -5.40163565   2.46528019
C    1.44800703  -3.39986546   2.57547530
N    1.03262255  -2.44700056   2.09153753
C   -1.93591329   3.18434069  -1.58797983
H   -2.64266267   3.86313856  -1.15828348
H   -2.42073074   2.58922423  -2.33342435
H   -1.13755416   3.73752081  -2.03688243
C   -1.36998713   2.26773452  -0.48745236
N   -0.94862938   1.58527956   0.33194036
C    0.73362601   2.23981779  -6.13354551
H    1.30535209   1.47310933  -6.61332420
H    1.31046688   3.13991779  -6.08911914
H   -0.16261497   2.41767760  -6.69033728
C    0.37046459   1.79184774  -4.70559711
N    0.10007440   1.45831366  -3.64242463
C   -4.53730635  -1.58649521   2.73188661
H   -4.35735635  -1.98907744   3.70679467
H   -5.16579001  -2.25435871   2.18064644
H   -5.01963853  -0.63564557   2.82210713
C   -3.19755302  -1.41436591   1.99227014
N   -2.20004577  -1.28620782   1.44159206
C    1.27989931   2.10258206   5.22303616
H    1.33161563   3.06944019   4.76761222
H    2.27026382   1.73906807   5.40173929
H    0.75300811   2.17344348   6.15161756
C    0.53841004   1.13222834   4.28484251
N   -0.01366243   0.40975588   3.58631470
C   -1.09579959  -1.73240920  -3.24919784
H   -1.44776209  -2.74276330  -3.23480449
H   -0.43729349  -1.59593647  -4.08145020
H   -1.92805546  -1.06605696  -3.33988381
C   -0.33916557  -1.43372186  -1.94156990
N    0.22418286  -1.21133555  -0.96798146
Na   0.02971833  -0.39884894   1.31116659
