43
Energy:   -477.53230640
C   -3.84284982  -1.36896053   3.69242051
H   -3.90178671  -2.38725812   3.36916111
H   -4.75874479  -0.86721157   3.45943236
H   -3.67873243  -1.33920265   4.74934011
C   -2.67602492  -0.66834449   2.97182574
N   -1.80727075  -0.14670399   2.43531018
C   -2.78585179   1.21864755  -2.08972208
H   -3.72160440   1.45298038  -1.62673681
H   -2.79612074   0.20082285  -2.41961073
H   -2.63167785   1.86408965  -2.92908731
C   -1.64618114   1.41733638  -1.07322144
N   -0.79764454   1.56526925  -0.31639050
C    3.71156514  -2.54910784   3.58668229
H    4.16556353  -2.20891014   4.49390397
H    4.42332308  -2.49507459   2.78957493
H    3.38784101  -3.56175019   3.70774938
C    2.49966609  -1.65905611   3.25395327
N    1.59735215  -0.99637214   3.00622139
C   -0.42566489  -0.59491807  -6.63584711
H    0.54158105  -0.87339933  -6.99886732
H   -0.69856998   0.35674445  -7.04175393
H   -1.14394020  -1.32946121  -6.93488899
C   -0.39121709  -0.50660269  -5.09876750
N   -0.36556914  -0.44084787  -3.95434186
C   -0.81110700  -3.22197649  -1.92187886
H   -0.03062279  -3.23313658  -2.65373952
H   -1.71844796  -2.87865652  -2.37327986
H   -0.95512010  -4.21066579  -1.53892613
C   -0.42125621  -2.27706326  -0.77003020
N   -0.13099457  -1.57353240   0.08757349
C    2.86172171   1.56371130  -2.37622226
H    3.31133215   2.53394275  -2.33878462
H    1.94901309   1.61478003  -2.93232841
H    3.53151488   0.87834835  -2.85219896
C    2.56423491   1.08021197  -0.94467415
N    2.34274247   0.72022474   0.12117850
C    0.86200343   4.50511379   4.42471981
H    0.29394388   4.33223561   5.31484434
H    0.49376881   5.38000938   3.93089792
H    1.89136398   4.64643951   4.68034257
C    0.72805718   3.29132793   3.48643292
N    0.62832810   2.38760918   2.78783568
Na   0.35208316   0.37836754   1.47189805
