43
Energy:   -477.72325693
C    2.65533790   3.80407928   3.38506862
H    3.32283638   3.30637548   4.05710796
H    1.71763217   3.97143940   3.87250851
H    3.07782682   4.74263646   3.09264322
C    2.43616573   2.92870494   2.13715703
N    2.27298209   2.27694895   1.20803013
C    0.22555874  -2.87878646   2.91410692
H   -0.73145371  -2.59694609   3.30087993
H    0.93244160  -2.93243848   3.71556633
H    0.15100559  -3.83495639   2.43968097
C    0.69286003  -1.83103532   1.88675740
N    1.04078708  -1.05093697   1.12184898
C    0.40174973   5.27721285  -2.86782184
H    1.41226628   5.62483119  -2.92184009
H   -0.21390539   6.03663386  -2.43291084
H    0.04875301   5.05248048  -3.85259987
C    0.34149574   4.00734806  -1.99867692
N    0.29663391   3.06187601  -1.35155902
C   -0.68539110  -2.71695841  -2.51405562
H    0.13321243  -2.80657831  -3.19725158
H   -1.60061763  -2.93569320  -3.02338320
H   -0.55307311  -3.40631839  -1.70648280
C   -0.73676530  -1.28099258  -1.96001338
N   -0.77501573  -0.21185074  -1.54750374
C   -3.74487823   0.72155061   0.65854512
H   -4.20989032   1.54302562   0.15471702
H   -4.28757046   0.49857705   1.55334511
H   -3.74503156  -0.13577415   0.01831599
C   -2.29431404   1.09406337   1.01728984
N   -1.21430306   1.37141604   1.28439159
C    4.91171707  -0.26439836  -2.68917546
H    4.85888594  -0.23405649  -3.75743968
H    5.21105058  -1.24229531  -2.37450725
H    5.62624730   0.45473459  -2.34684018
C    3.52854606   0.06435936  -2.09726642
N    2.49871237   0.30913443  -1.65656323
C   -4.32065567  -4.83666071   1.21250095
H   -5.27178911  -4.52466075   0.83447796
H   -4.38543349  -4.97402305   2.27166785
H   -4.03813546  -5.75916486   0.74982663
C   -3.26511890  -3.76029007   0.89806752
N   -2.47922381  -2.95888320   0.66395754
Na   0.75786148   1.02627027  -0.15256801
