43
Energy:   -477.62164294
C    2.65047003  -2.78283933  -0.22600712
H    3.70670565  -2.79114025  -0.39688012
H    2.19899348  -3.60338907  -0.74346837
H    2.45809445  -2.87322165   0.82266908
C    2.05694501  -1.45982865  -0.74463106
N    1.61503865  -0.47478707  -1.13077016
C   -3.51873428   4.57522084  -0.33708190
H   -3.26090535   5.27802967  -1.10159755
H   -3.85709768   5.10093271   0.53127076
H   -4.29771103   3.93279495  -0.69117692
C   -2.28167844   3.73168097   0.02310321
N   -1.36063413   3.10362718   0.29127740
C   -2.25581159  -2.20763638  -2.44099750
H   -1.43815911  -2.54427917  -3.04350579
H   -3.13954566  -2.14635242  -3.04112870
H   -2.41617292  -2.89806720  -1.63944362
C   -1.92990246  -0.81761877  -1.86373302
N   -1.68724830   0.21731253  -1.43393338
C    2.91208058   4.08298219   2.83537310
H    2.35331004   3.97775955   3.74179676
H    2.84528619   5.09367197   2.49049085
H    3.93696585   3.83522380   3.01737603
C    2.33735680   3.13637157   1.76522315
N    1.90944882   2.43157693   0.96844787
C   -1.46859075  -1.58383564   3.41824225
H   -0.73584759  -2.21361054   3.87799350
H   -2.22334312  -2.18938951   2.96156678
H   -1.91569482  -0.95615597   4.16054628
C   -0.79341714  -0.70927365   2.34545060
N   -0.29071970  -0.05812250   1.54670845
C    2.05132213   2.86469584  -4.63378298
H    2.99173889   3.34100677  -4.45035889
H    1.48322234   3.45135215  -5.32515559
H    2.21878860   1.89131567  -5.04534721
C    1.27443611   2.73575718  -3.31036961
N    0.69600916   2.63975650  -2.32502821
C   -0.50318782  -6.23724367   1.76141910
H   -1.29773555  -6.78694966   1.30161761
H   -0.64789233  -6.22050386   2.82145658
H    0.43183630  -6.70630287   1.53644698
C   -0.49710246  -4.79507361   1.22131866
N   -0.49257164  -3.72131244   0.81918934
Na   0.18165478   1.35586493  -0.33458665
