43
Energy:   -477.82118236
C    1.13153874   2.68333514  -2.56688385
H    1.02731643   3.67632963  -2.18217639
H    0.82856453   2.66471937  -3.59292439
H    2.15396869   2.37703262  -2.49128724
C    0.24606093   1.72180311  -1.75264483
N   -0.41321755   1.00589880  -1.14640686
C    4.59022367   4.99542481   0.59585935
H    4.65658772   5.40612716   1.58166845
H    4.39848180   5.78048997  -0.10543006
H    5.51241848   4.51285907   0.34769383
C    3.44340081   3.96894556   0.54353645
N    2.58953906   3.20468511   0.50457968
C   -2.03602198  -4.74181439   3.17586632
H   -1.57216120  -5.69658271   3.04114140
H   -3.09912651  -4.86142290   3.19590761
H   -1.70787024  -4.31302367   4.09963797
C   -1.64585144  -3.81265132   2.01138234
N   -1.35535174  -3.12084718   1.14437109
C    3.54102397   0.11246664   1.63177982
H    3.20658979   0.83516319   2.34645713
H    4.11335786   0.60131244   0.87127815
H    4.14967968  -0.61851229   2.12178710
C    2.32261485  -0.57918668   0.99248733
N    1.41545387  -1.09415401   0.51650501
C    0.45007880  -4.59316203  -3.40719784
H   -0.30050218  -5.35472541  -3.36783307
H    1.34902912  -4.95455873  -2.95312754
H    0.64426240  -4.33616812  -4.42756343
C   -0.04294226  -3.34681585  -2.64881044
N   -0.41001884  -2.41885447  -2.08415655
C   -5.66284214  -0.40527522  -1.78726583
H   -6.11452225  -1.30568317  -2.14802999
H   -5.58600124   0.30070498  -2.58763233
H   -6.26483903   0.00697071  -1.00460872
C   -4.25692590  -0.71877111  -1.24254585
N   -3.21015736  -0.95218305  -0.83697707
C   -1.15495154   2.92668746   2.40298590
H   -0.51969804   3.05288653   3.25470591
H   -2.12620509   3.31906051   2.62118079
H   -0.73875358   3.44912597   1.56708139
C   -1.27037676   1.42840766   2.06618526
N   -1.35631609   0.31287025   1.81542187
Na  -0.92553826  -1.11891437  -0.11599786
