48
Energy:   -668.27913211
O    3.47576134   1.35971365  -2.80486507
H    3.73754187   0.49843705  -2.47943394
H    4.29683808   1.77829231  -3.06343176
O   -2.28565944   0.83987897  -0.12173612
H   -2.29730010  -0.11554732  -0.06466645
H   -2.97482982   1.12455927   0.47845816
O   -0.38529718   0.74302959  -2.15951587
H   -1.17521439   0.94170915  -1.65673451
H    0.32278006   1.16025384  -1.66882005
O    1.40765750   0.15510989  -4.22139798
H    0.64822967   0.44951452  -3.71857880
H    2.13514194   0.67932175  -3.88643507
O    1.92394652  -2.34798179  -3.37343835
H    1.73354225  -1.50016408  -3.77491463
H    2.03237044  -2.94510413  -4.11365522
O   -3.95643682   1.30929285   2.02623715
H   -4.75131163   1.79351194   2.24970473
H   -3.28325193   1.67517870   2.59998056
O    0.85551263  -0.16510300   2.55830890
H    0.50930592   0.64213141   2.17785474
H    0.26243125  -0.36235354   3.28327687
O   -3.06286579  -1.25221139   2.66118967
H   -2.72642468  -1.57396210   1.82481912
H   -3.51318786  -0.43676231   2.44099730
O   -1.18897011  -0.41453046   4.41021611
H   -1.85070575  -0.79722814   3.83412559
H   -1.28621486  -0.88898506   5.23584807
O    1.71129949   1.62775451  -0.68438418
H    2.36637692   1.75796381  -1.37005971
H    1.94890371   0.79290349  -0.28089953
O   -1.89375239   2.13247969   3.53360954
H   -1.22177319   2.29960610   2.87274302
H   -1.59433049   1.34401440   3.98626929
O   -2.21459100  -1.89991205   0.08164234
H   -1.35894916  -2.01795239  -0.33088083
H   -2.78459638  -2.52617380  -0.36458847
O   -0.22904432   2.00385081   1.29478277
H    0.48127122   2.15465940   0.67113187
H   -0.93318464   1.62402215   0.76928448
O    3.91175530  -1.12381280  -1.86087882
H    3.34759920  -1.68693002  -2.39083989
H    3.50815520  -1.12836718  -0.99293985
O    2.15371317  -0.88152983   0.27657029
H    1.82868614  -0.76379884   1.16916689
H    1.43518966  -1.31335646  -0.18547039
O    0.13559656  -1.79286462  -1.33407735
H    0.68499428  -2.18681164  -2.01172013
H   -0.08253991  -0.92583185  -1.67598743
