48
Energy:   -668.64384616
O    2.16056362   1.34699237  -2.70130722
H    2.77080453   1.85559469  -3.23531242
H    1.61190395   0.88677245  -3.33644662
O   -1.59880122   0.58118909  -0.72088539
H   -0.79088034   1.07735443  -0.58929638
H   -2.19120995   0.90257906  -0.04118529
O   -1.60418229  -0.81533961  -3.10426528
H   -1.73928617  -0.26414914  -2.33344243
H   -1.43952543  -1.68873654  -2.74888130
O    0.62495423  -0.13293651  -4.43313360
H   -0.20556327  -0.31734889  -3.99442571
H    0.40606999  -0.11802014  -5.36485193
O    1.58792630  -2.43680255  -3.20337266
H    1.32973887  -1.70206421  -3.75990719
H    2.24695457  -2.07097754  -2.61338483
O   -3.14539545   1.24499258   1.45056897
H   -4.01044869   1.64835097   1.52279608
H   -2.60060754   1.73332870   2.06779325
O    1.59823768   0.45513627   3.22395078
H    0.82110591   0.24678754   3.74249572
H    1.47778169   1.36953337   2.96782552
O   -2.32650947  -1.15325489   2.59893358
H   -1.81844070  -1.54961380   1.89112175
H   -2.75669632  -0.40056087   2.19319619
O   -0.82449084   0.04420594   4.48529009
H   -1.34645892  -0.46076033   3.86175963
H   -0.99246082  -0.37151328   5.33098239
O    0.88242864   1.63935809  -0.27003979
H    1.30892725   1.69353958  -1.12525622
H    1.20526145   0.82125127   0.10773272
O   -1.51745405   2.41842047   3.23815211
H   -0.67867456   2.71754631   2.88714706
H   -1.29044230   1.68559043   3.81056598
O   -0.78779108  -1.76300110   0.38274710
H   -0.75858839  -2.39493820  -0.33560835
H   -1.11328450  -0.95758247  -0.01923140
O    0.96977098   2.93650478   2.13610965
H    1.53208768   3.70946078   2.08540644
H    0.94761329   2.59675042   1.24151038
O    3.18665538  -0.97781387  -1.54998723
H    2.94314905  -0.12590508  -1.91218597
H    2.81503972  -0.97864063  -0.66786877
O    1.70283982  -0.70969145   0.77340617
H    1.76608345  -0.43797879   1.68905039
H    0.88730624  -1.20866669   0.72692462
O   -0.68388814  -3.18870910  -1.97486187
H    0.16484214  -2.99987431  -2.37514952
H   -0.84975557  -4.10745910  -2.18609226
