48
Energy:   -680.85502094
O    3.68673883   1.23187706  -2.60294835
H    4.26054145   1.76864888  -3.14962779
H    3.09727029   0.80256744  -3.22299022
O   -2.20151805   0.88369353  -0.45467850
H   -1.56982527   1.37346851   0.07193003
H   -3.04777350   1.06783422  -0.04703187
O   -0.15539746   0.41381230  -2.29646286
H   -1.00769856   0.63757502  -1.92263814
H    0.47368100   0.91273602  -1.77534169
O    1.91331924  -0.13577592  -4.09986580
H    2.06315791  -1.05469775  -3.87768819
H    1.06394884   0.07010273  -3.70946120
O    2.47741640  -2.62209188  -2.97857589
H    3.14043070  -2.20937069  -2.42512751
H    2.91683995  -3.38737272  -3.34936429
O   -4.32680824   1.23272157   1.28219881
H   -4.18160980   0.39744924   1.72657411
H   -5.27891643   1.32716732   1.25388218
O    0.07498870  -0.40409481   2.38020900
H   -0.42248592  -0.28517767   3.18928846
H   -0.50924095  -0.90457512   1.81062404
O   -3.60967238  -1.04895038   2.52153071
H   -3.04802975  -0.76851772   3.24412805
H   -3.01378836  -1.47642432   1.90637211
O   -1.83734003   0.15750353   4.29932996
H   -2.05608420   1.00936325   3.92154980
H   -1.89846967   0.29157868   5.24512004
O    1.72325711   1.55006278  -0.67969251
H    2.44981091   1.66073510  -1.29296493
H    1.93693308   0.75220733  -0.19595588
O   -2.43737461   2.41276562   2.95396474
H   -1.69764546   2.53901294   2.35974740
H   -3.16569223   2.16992517   2.38228842
O   -1.63120004  -1.56116791   0.60915585
H   -1.89945602  -0.75831546   0.16227945
H   -1.05418979  -2.00173839  -0.01469403
O   -0.32595277   2.00256596   1.16300680
H   -0.10547212   1.21048837   1.65314272
H    0.42404410   2.14384994   0.58527383
O    4.13373609  -1.22803013  -1.37562426
H    4.15057702  -0.34669909  -1.74872456
H    3.64748784  -1.13268650  -0.55665901
O    2.11254402  -0.85522214   0.52429446
H    1.63783794  -0.77969805   1.35205174
H    1.53123998  -1.36492053  -0.04008573
O    0.40326619  -2.02967275  -1.24584320
H    1.02044639  -2.44339771  -1.84929337
H    0.14212599  -1.22111291  -1.68660235
