48
Energy:   -665.52149260
O    3.40497321  -0.69771978  -2.84017987
H    3.32466627   0.11016535  -2.33312539
H    3.11801641  -1.38672544  -2.24088124
O   -0.77316489   1.33178019  -0.89597634
H    0.00023110   1.26472275  -0.33598188
H   -0.43456502   1.63857435  -1.73708235
O    1.05431401  -0.48756876  -4.18266803
H    1.95062021  -0.60684345  -3.86859703
H    0.82620376   0.40533939  -3.92399332
O   -1.97925228   2.66327351   1.20876995
H   -1.72160810   2.27971715   0.37047654
H   -2.60555475   2.03935008   1.57578032
O   -3.48739950   0.72661045   2.48466597
H   -4.41781237   0.74468727   2.70880200
H   -3.34595832  -0.14588690   2.11727706
O   -1.39339269  -1.32577089  -0.71043253
H   -1.29489617  -0.39167727  -0.89482178
H   -1.07080658  -1.76143829  -1.49933301
O    0.74108754  -1.53447526   0.94891119
H   -0.02046383  -1.51544730   0.36933436
H    0.39282131  -1.82016289   1.79349692
O   -2.88290888  -1.73166647   1.58185235
H   -2.48866090  -1.68488560   0.71086904
H   -2.17186814  -2.02479545   2.15170174
O    2.93446994   1.69441416  -1.50767099
H    3.75506569   2.10991092  -1.24268625
H    2.49552100   1.48299390  -0.68374312
O   -1.22654075   0.40242191   4.05427044
H   -2.07399445   0.56926701   3.64169706
H   -0.65364176   1.08848647   3.71172990
O    1.43018767   1.08328082   0.68864262
H    1.12893524   1.53397659   1.47753561
H    1.30009777   0.15417716   0.87857641
O   -0.10950265  -2.49813371  -2.83451016
H    0.25004126  -1.78984118  -3.36862785
H   -0.33065925  -3.18470074  -3.46375360
O    0.71428479   2.04827888  -3.11303619
H    0.80936912   2.80956971  -3.68542338
H    1.53740533   2.00993512  -2.62596927
O    0.18947660   2.39316495   2.76278076
H   -0.58394066   2.58151443   2.23119627
H    0.36958638   3.21276557   3.22326653
O    2.15987928  -2.52365488  -1.22731302
H    1.38872217  -2.66245433  -1.77711595
H    1.80435794  -2.29113309  -0.36954263
O   -0.67441831  -2.10514562   3.24225675
H   -0.81933940  -1.23154479   3.60564542
H   -0.57573342  -2.67041448   4.00839267
