48
Energy:   -666.09618088
O    3.36777947  -0.30772603  -2.88399813
H    3.29659412   0.46906908  -2.32924247
H    3.15099493  -1.03760062  -2.30389521
O   -0.86666320   1.41959809  -0.75401364
H   -0.08567221   1.39860702  -0.20098172
H   -0.54785583   1.70993632  -1.60858805
O    1.19641127  -0.25620046  -4.44204438
H    2.02079588  -0.28832596  -3.95666842
H    1.45849898  -0.10792911  -5.35064632
O   -2.18641188   2.51458230   1.41641122
H   -1.89564377   2.23336200   0.54888549
H   -2.77096292   1.81644231   1.71159335
O   -3.51878521   0.38432365   2.56911620
H   -2.82492262   0.32826036   3.22611198
H   -4.32253289   0.49254492   3.07755467
O   -1.28992050  -1.26615663  -0.73503093
H   -1.25982271  -0.31545778  -0.84225815
H   -0.95853460  -1.61175907  -1.56386999
O    0.88577089  -1.42954763   0.87973149
H    0.10903020  -1.41974299   0.32043763
H    0.56964543  -1.75169236   1.72384009
O   -2.65823934  -2.02943387   1.54517758
H   -2.32802339  -1.83948032   0.66705064
H   -3.08990973  -1.22032586   1.81947077
O    2.80746419   1.96500068  -1.40668018
H    3.43788805   2.64590067  -1.17179123
H    2.38503676   1.73340698  -0.57954581
O   -1.39495789   0.19960247   4.20940272
H   -0.97968149  -0.62350294   3.95196374
H   -0.80766689   0.87875566   3.87763161
O    1.36462722   1.24508324   0.80817345
H    1.01614919   1.60585495   1.62342720
H    1.30986950   0.29635433   0.92283338
O    0.00201401  -2.23288094  -2.96839519
H    0.34344794  -1.54869003  -3.54418815
H   -0.26294009  -2.93573056  -3.56171937
O    0.52712832   2.01923464  -3.00972442
H    0.67208936   1.26828316  -3.58530241
H    1.35489854   2.12566457  -2.54100171
O   -0.01168677   2.24348387   2.96458195
H   -0.79061995   2.42390807   2.43832910
H    0.13454261   3.04886621   3.46077556
O    2.27781113  -2.29590108  -1.36280588
H    1.94176839  -2.09412921  -0.48953889
H    1.49441794  -2.42169466  -1.89825236
O   -0.49735486  -2.18569364   3.13798956
H   -0.48962438  -3.02045812   3.60632741
H   -1.28896433  -2.21916820   2.60089948
