48
Energy:   -668.21309745
O    3.29806773  -0.78959082  -2.75935994
H    4.16193692  -1.12560115  -2.99823006
H    2.93610836  -1.45363251  -2.17261819
O   -0.92093150   1.28026283  -0.92524709
H   -0.10468722   1.27475701  -0.42530028
H   -0.66188277   1.55558707  -1.80463447
O    0.88073169  -0.65772943  -4.11114893
H    1.78086936  -0.68970938  -3.78717161
H    0.59942125   0.24284462  -3.94970959
O   -1.89576704   2.75408285   1.21040788
H   -1.72841761   2.32394197   0.37183478
H   -2.44731341   2.13673561   1.69093971
O   -3.03349497   0.81753449   2.76264770
H   -2.35227924   0.78531888   3.43431662
H   -3.07812491  -0.07627904   2.42303412
O   -1.49039457  -1.35729662  -0.54952358
H   -1.41214345  -0.42911350  -0.76994297
H   -1.19800821  -1.81641606  -1.33689350
O    0.80387941  -1.45619359   0.92074409
H   -0.00394904  -1.46455907   0.40734847
H    0.52292462  -1.65672992   1.81353826
O   -2.81965084  -1.77069538   1.80850641
H   -2.43912424  -1.66579052   0.93648214
H   -3.52598187  -2.40524680   1.68737501
O    2.58195755   1.73301760  -1.88760263
H    2.31053663   1.59919444  -0.97949807
H    2.95395444   0.89203642  -2.15331077
O   -0.76836279   0.74736807   4.36263716
H   -0.64043399   1.03090959   5.26788314
H   -0.30076566   1.39804422   3.83899099
O    1.36925731   1.17695726   0.53640669
H    1.13729323   1.64781999   1.33685207
H    1.29414337   0.25216360   0.77166494
O   -0.31493989  -2.60592608  -2.69632218
H   -0.61394705  -3.27530925  -3.31175109
H    0.04580771  -1.91409448  -3.25081480
O    0.30856055   1.92559478  -3.30715166
H    0.30765933   2.72231740  -3.83768357
H    1.14390777   1.94903490  -2.84037823
O    0.34449220   2.59634833   2.66546782
H   -0.45981791   2.72867500   2.16366431
H    0.69231123   3.47817161   2.79828901
O    2.05752576  -2.63797777  -1.24323836
H    1.76939745  -2.33649660  -0.38165665
H    1.24621547  -2.79242336  -1.72713300
O   -0.46250762  -1.79352861   3.29804706
H   -0.51689413  -0.95620011   3.75864986
H   -1.32351456  -1.90155260   2.89403009
