48
Energy:   -664.20262834
O    3.17791118  -1.22462160  -2.69097023
H    3.99807337  -1.68335106  -2.87299531
H    2.80475842  -1.68844727  -1.94140062
O   -0.81209707   1.42320102  -1.03268740
H    0.04334962   1.42291401  -0.60321944
H   -0.61339176   1.52669102  -1.96329896
O    0.71088256  -1.17355705  -3.96092151
H    1.62335369  -1.20250338  -3.67318832
H    0.47912048  -0.24532286  -3.93093044
O   -1.58548120   2.96738241   1.14766194
H   -1.49113376   2.53717368   0.29780851
H   -2.16586438   2.39128807   1.64515820
O   -2.89582189   1.15931622   2.78899393
H   -3.63487676   1.37530781   3.35765672
H   -3.09826213   0.28592711   2.45367130
O   -1.54856165  -1.09543640  -0.26165995
H   -1.29708274  -1.69015962  -0.96826768
H   -1.42559050  -0.22028358  -0.62937926
O    0.63874235  -1.03192866   1.32584967
H   -0.15732373  -1.09805191   0.79846143
H    0.36902623  -0.55093806   2.10823902
O   -3.18873018  -1.36258684   1.94445623
H   -2.74555599  -1.36156229   1.09602978
H   -2.58003968  -1.80956676   2.53262004
O    2.65156212   1.45381353  -2.28750037
H    2.43484579   1.48262290  -1.35560128
H    2.97201396   0.56349069  -2.43195696
O   -0.30245169   0.48271879   3.41632003
H   -1.21525186   0.73718482   3.28113592
H    0.19447602   1.28904781   3.27801530
O    1.58124304   1.30489182   0.25834728
H    1.47570035   1.90566744   0.99602013
H    1.41331118   0.43834284   0.62864932
O   -0.47522220  -2.76418163  -2.15008625
H   -0.12136448  -2.21566497  -2.85019056
H   -0.86252527  -3.51258779  -2.60408669
O    0.28789068   1.53243944  -3.56537829
H    0.29480342   2.20394368  -4.24748248
H    1.15492808   1.58931246  -3.16382698
O    0.78938927   2.83593649   2.40577351
H   -0.05443245   2.99274815   1.98197303
H    1.05777866   3.69512645   2.73133700
O    1.88251114  -2.52121300  -0.70407249
H    1.06640749  -2.75261304  -1.14753691
H    1.60291242  -2.10512118   0.11135624
O   -1.11578871  -2.22080565   3.53961230
H   -0.40655993  -2.57909777   3.00589594
H   -0.80017282  -1.35876330   3.81072379
