48
Energy:   -672.42631545
O    3.12416988   0.47680193  -3.51840342
H    3.63033038   0.07457332  -2.81253832
H    3.76826899   0.65655687  -4.20328031
O   -2.40194343   0.09344328  -0.30182381
H   -2.00187776  -0.43533902   0.38851566
H   -3.21011635   0.42611160   0.08858644
O   -0.55162507  -0.68231805  -2.23247905
H   -1.37601149  -0.46844224  -1.79558546
H   -0.01831871   0.10695651  -2.13834166
O    1.54019527  -1.75309845  -3.76360126
H    0.68675104  -1.45520599  -3.44876022
H    2.07477022  -0.95969702  -3.79483656
O    2.40946927  -3.55502888  -1.95985777
H    2.15963974  -2.96267943  -2.66903982
H    2.75054375  -4.33113171  -2.40433998
O   -4.29109502   1.20159194   1.38102292
H   -5.17696837   1.56186358   1.34022345
H   -3.74099083   1.94469268   1.62885052
O    0.53049888   0.90418220   2.26761223
H    0.03881914   1.15926916   3.04826166
H    0.17438753   1.45375256   1.56947974
O   -3.08821934  -0.41147934   3.32572609
H   -2.46337561  -0.91198043   2.80103492
H   -3.63596852   0.03818924   2.68229712
O   -1.40389997   1.53077561   4.14773865
H   -2.01639496   0.81965265   3.95962735
H   -1.41611000   1.61205440   5.10140344
O    1.17040292   1.39095039  -1.73941730
H    1.79186139   1.33640906  -2.46539696
H    1.61800733   0.96579805  -1.00789311
O   -2.51734565   3.07600577   2.11368414
H   -1.84133059   3.01843244   1.43846507
H   -2.11140829   2.69582127   2.89272615
O   -1.03375885  -1.24078410   1.65528550
H   -0.42758380  -0.55879075   1.94454096
H   -0.49938774  -1.82393339   1.11619713
O   -0.70659533   2.16845210   0.19281628
H   -0.10083619   2.20867440  -0.54723094
H   -1.34269737   1.49709770  -0.05394133
O    4.21872184  -0.95287418  -1.47143132
H    3.71578551  -0.58776380  -0.74343317
H    3.92848141  -1.86306285  -1.53100412
O    2.27246373  -0.06441453   0.29878933
H    1.93939060   0.27444024   1.12973553
H    1.77006721  -0.86498916   0.14742934
O    0.69443495  -2.19070954  -0.31727088
H    1.21003744  -2.84881699  -0.78340447
H    0.17499561  -1.76536546  -0.99954431
