48
Energy:   -665.44423511
O    3.19851572   1.03473461  -3.20872991
H    3.66660611   1.49598884  -3.90469526
H    2.60283538   0.44460976  -3.67041103
O   -2.32924018   0.56026821  -0.33504739
H   -1.69657011   1.15237227   0.07161366
H   -3.14334010   0.71260685   0.14481311
O   -0.50280786  -0.04057805  -2.35228752
H   -1.32156319   0.14862628  -1.89395000
H    0.11488399   0.61010277  -2.01866635
O    1.45107353  -0.73749223  -4.23404780
H    1.72439282  -1.57890502  -3.86859885
H    0.61930320  -0.54640888  -3.80059986
O    2.40572047  -2.89091485  -2.75105777
H    3.05015974  -2.31950501  -2.33342076
H    2.89863611  -3.67706093  -2.98609044
O   -4.31785044   1.03073543   1.53592688
H   -5.17774354   1.45081793   1.55453884
H   -3.73988095   1.64705303   1.98574432
O    0.93505652   0.63126498   2.68801392
H    1.56061813   1.04634716   3.28182475
H    0.17829796   0.43053354   3.23870005
O   -3.17633311  -1.04999853   3.00743408
H   -2.66809852  -1.49711710   2.33066644
H   -3.73850356  -0.44423318   2.52448008
O   -1.33858728   0.46068531   4.22983379
H   -1.96921691  -0.13569912   3.82627000
H   -1.46783032   0.34549125   5.17124678
O    1.37050663   1.57699676  -1.20851156
H    2.03022084   1.61353043  -1.90109679
H    1.68580083   0.89773733  -0.61233370
O   -2.43963166   2.53929466   2.74524395
H   -1.75876324   2.65441088   2.08237269
H   -2.06151095   1.92381703   3.37329161
O   -1.62943290  -1.78464987   0.88128575
H   -0.94339544  -2.17147899   0.33727501
H   -1.90366741  -1.00288784   0.40183251
O   -0.42541605   2.14314750   0.84645698
H    0.07530646   1.63553066   1.48507577
H    0.16941301   2.24827182   0.10392138
O    3.98377289  -1.06431920  -1.55457947
H    3.51684489  -0.85865148  -0.74469622
H    3.87799840  -0.28316636  -2.09757471
O    2.07885782  -0.48501577   0.40733735
H    1.71715392  -0.26258023   1.26519780
H    1.48806802  -1.15548651   0.06430929
O    0.43471888  -2.17995043  -0.94739353
H    1.04595925  -2.62678419  -1.53301853
H    0.03306875  -1.50241369  -1.49131722
