48
Energy:   -680.91984558
O    3.25840025   0.84796531  -3.25462219
H    3.64346439   0.16265526  -2.70844676
H    4.00779043   1.26697294  -3.67779923
O   -2.31146416   0.62444774  -0.31758500
H   -3.11493824   0.82978058   0.16043139
H   -1.67140167   1.25874765   0.00523922
O   -0.47193656  -0.10253465  -2.28907725
H   -1.28781797   0.14216345  -1.85239405
H    0.16988981   0.53289475  -1.97202798
O    1.38462335  -0.98464846  -4.18680917
H    0.58923299  -0.67631168  -3.75262665
H    2.02344212  -0.28684450  -4.04116556
O    2.29642045  -3.04754457  -2.71435200
H    2.44533296  -3.82225639  -3.25645762
H    1.97152001  -2.38605494  -3.32517359
O   -4.22440251   1.26207671   1.57808146
H   -5.07991736   1.69124501   1.58994603
H   -3.62786731   1.90538438   1.96087755
O    0.39279410   0.13530273   2.37930375
H   -0.01373106   0.40910011   3.20149845
H   -0.21092563  -0.51338786   2.01742690
O   -3.10860753  -0.70050544   3.20342939
H   -2.61467693  -1.21418933   2.56437283
H   -3.65298194  -0.11790683   2.67383785
O   -1.33042622   0.93750668   4.39088131
H   -1.98712672   0.31802285   4.07273654
H   -1.37323016   0.86405892   5.34429890
O    1.48340019   1.46271205  -1.22215693
H    2.10902240   1.47661333  -1.94647416
H    1.82946306   0.80518952  -0.61871972
O   -2.31953626   2.84992309   2.62940234
H   -1.61592117   2.88941384   1.98163839
H   -1.95339885   2.33790651   3.35052249
O   -1.40127093  -1.49169968   1.13332229
H   -0.86258216  -2.01787964   0.54240697
H   -1.78922420  -0.82105078   0.57122428
O   -0.35380817   2.18667146   0.75261084
H   -0.00870158   1.53298693   1.36074721
H    0.30329863   2.23933693   0.05858717
O    4.04351029  -1.16476496  -1.64603065
H    3.64136572  -0.99890805  -0.79338590
H    3.58293595  -1.93314999  -1.98320654
O    2.22702374  -0.59244315   0.40315599
H    1.84711040  -0.36363121   1.25141467
H    1.62804919  -1.24484192   0.04006209
O    0.43527950  -2.22246892  -0.83955452
H    1.01965239  -2.71550006  -1.41545423
H    0.05287322  -1.55055345  -1.40393639
