48
Energy:   -663.54588838
O    3.31771715  -0.33740723  -3.02238256
H    3.19590294   0.44824843  -2.48933628
H    3.12041532  -1.06258770  -2.42957810
O   -0.90942853   1.29523923  -0.83921054
H   -0.10799180   1.28496705  -0.31592716
H   -0.63784949   1.64640224  -1.68724428
O    0.89113631  -0.30049108  -4.24000364
H    1.80944333  -0.35043433  -3.97457996
H    0.60528793   0.56687251  -3.95329308
O   -2.15126335   2.44067746   1.34993037
H   -1.89098279   2.11383094   0.48873514
H   -2.71607910   1.75491815   1.70622966
O   -3.41004013   0.35390584   2.65066750
H   -2.68913206   0.32718722   3.27980144
H   -4.19534890   0.44985552   3.18947696
O   -1.30162604  -1.40695887  -0.67158614
H   -1.29163572  -0.46474223  -0.83998990
H   -0.98554863  -1.79955702  -1.48533894
O    0.93836997  -1.46764726   0.86274696
H    0.14323082  -1.50447859   0.33111830
H    0.66186362  -1.76632801   1.72909903
O   -2.56125367  -2.09276931   1.69425356
H   -2.27122800  -1.94067788   0.79481754
H   -2.99078068  -1.27623495   1.94922419
O    2.71876855   1.97784527  -1.60531002
H    3.51505282   2.45455756  -1.37098415
H    2.33865549   1.71834902  -0.76602008
O   -1.21695270   0.25295589   4.20428045
H   -0.80476580  -0.57834896   3.96919313
H   -0.64871213   0.91998226   3.81903983
O    1.37563074   1.20171171   0.64435788
H    1.06057665   1.58961780   1.46075339
H    1.34203988   0.25761774   0.79859819
O   -0.03666904  -2.42613243  -2.88493181
H    0.23628610  -1.67956026  -3.41818347
H   -0.23692204  -3.11401517  -3.51971360
O    0.40558184   2.18158137  -3.10284645
H    1.25110879   2.20095082  -2.65458218
H    0.41184347   2.95937804  -3.66072187
O    0.08570275   2.26380323   2.82307691
H   -0.71816917   2.41257108   2.32519146
H    0.22517716   3.08006984   3.30316811
O    2.31355997  -2.30148298  -1.40386427
H    1.52739258  -2.49020308  -1.91626783
H    1.98703401  -2.11267837  -0.52411121
O   -0.33578692  -2.16748485   3.20139557
H   -0.28918992  -2.99072412   3.68754131
H   -1.14783120  -2.23128975   2.69865821
