48
Energy:   -664.49698165
O    3.09879262   1.05883160  -2.26478608
H    3.06386718   0.83514330  -1.33474543
H    3.33256277   0.23906058  -2.70016964
O   -2.22063618   0.06999396  -0.57333931
H   -1.80186437  -0.60120979  -0.03450024
H   -3.01000591   0.30953082  -0.08779903
O   -0.91266147   0.13870453  -3.02911468
H   -1.53407724   0.13256079  -2.30107859
H   -0.43096628   0.95948778  -2.92656495
O    0.88599493  -1.42882822  -1.79918516
H    0.24432743  -0.93525040  -2.30994498
H    1.63934418  -1.51878779  -2.38279806
O    3.40580177  -1.69241863  -2.90137005
H    3.57437125  -2.10263557  -2.05311405
H    3.93183366  -2.19781540  -3.52112516
O   -4.13025760   0.93114311   1.22663708
H   -5.03358526   1.24613235   1.19481320
H   -3.61875766   1.69553299   1.49179321
O    0.56761448   0.68062713   1.90062810
H    0.14304053   0.94144115   2.71790703
H    0.23413577   1.29778090   1.24936392
O   -2.78054073  -0.63355339   3.08688477
H   -2.20843984  -1.14659048   2.51616122
H   -3.38938230  -0.19973362   2.48910204
O   -1.18366999   1.36475315   3.92721479
H   -1.76844304   0.63129236   3.73666927
H   -1.17953026   1.42649650   4.88241240
O    0.70372961   2.32218311  -2.45548444
H    1.56428241   1.90400126  -2.42711797
H    0.82581776   3.08434332  -3.02155701
O   -2.43980453   2.89133103   1.96672338
H   -1.78001075   2.89931296   1.27329689
H   -1.98527558   2.52705919   2.72628990
O   -0.90467353  -1.52741946   1.24220340
H   -0.29684757  -0.84166818   1.51883426
H   -0.34133219  -2.25056385   0.96663021
O   -0.61561102   2.18577958  -0.02354970
H   -0.11392887   2.37349748  -0.81683960
H   -1.20900068   1.47860486  -0.27658026
O    3.47957520  -2.69366057  -0.36014349
H    2.69183285  -3.16973551  -0.09737652
H    3.36807821  -1.81989098   0.01445894
O    2.46906635  -0.16561268   0.10915623
H    1.96280607   0.15163507   0.85701066
H    1.81436410  -0.52933749  -0.48691515
O    0.74800628  -3.40380989   0.03726944
H    0.32402300  -4.19029311  -0.30611689
H    0.72280747  -2.78098408  -0.68914977
