48
Energy:   -665.71080699
O    2.41752402  -0.81816488  -0.34120033
H    2.83968775  -1.57290858   0.06913073
H    1.80690206  -0.49512510   0.32138398
O   -1.36618212   1.48099479  -1.63443322
H   -0.61284094   1.87778923  -1.19709688
H   -0.99501227   1.03902557  -2.39806141
O    0.79477416  -2.13405315  -2.07207079
H    1.41895521  -1.66377600  -1.51937805
H    0.48106769  -1.47650366  -2.69291599
O   -2.91525503   3.21634799  -0.05519061
H   -2.57465752   2.68458405  -0.77453218
H   -3.29952732   2.58267669   0.55063720
O   -3.49419439   1.28247907   1.86130854
H   -2.71452325   1.51916287   2.36362870
H   -4.17394995   1.14913812   2.52190253
O    0.46096429   0.17439203   1.44030511
H   -0.38050192  -0.01837105   1.02677293
H    0.67773927  -0.62159303   1.92574124
O    0.94104217  -2.37021717   2.19853374
H    0.29565271  -2.66231750   1.55480888
H    1.76859466  -2.74342231   1.89504297
O   -1.94372311  -0.35348427   0.29189536
H   -1.85002555   0.20728606  -0.47816259
H   -2.60370102   0.08480796   0.82907404
O    2.25386241   1.24965157  -2.20348096
H    1.88058671   1.89001349  -1.59781297
H    2.57435167   0.54510559  -1.64033495
O   -1.12568827   1.95255120   2.95382544
H   -0.45499291   1.34716131   2.63775161
H   -0.91856329   2.78410921   2.52739564
O    0.74229166   2.43992935  -0.18631527
H    0.35681203   3.17072124   0.29698641
H    0.81503657   1.73699191   0.45929992
O    1.47673616  -4.57776647  -0.86844188
H    0.62973034  -4.63621000  -0.42640414
H    1.34167148  -3.93146764  -1.56146945
O    0.16906664   0.15644898  -3.52099215
H    0.94927961   0.56883020  -3.15026140
H    0.25072282   0.29340970  -4.46481728
O   -0.79123062   4.16375800   1.30269502
H   -1.58342099   3.94037090   0.81405972
H   -0.85881361   5.10695227   1.45118393
O    3.15833014  -3.24479862   0.77491994
H    2.64109250  -3.80327481   0.19457399
H    3.94040148  -3.76092445   0.97039473
O   -0.75511298  -2.85422728   0.07664081
H   -0.29547176  -2.63081954  -0.73271127
H   -1.38815877  -2.14630663   0.19636222
