48
Energy:   -672.39644966
O    3.12595044   0.97373916  -3.36558684
H    3.57280196   0.38390208  -2.75842311
H    3.83337563   1.42252578  -3.82859009
O   -2.37696349   0.44351208  -0.17982648
H   -2.03908039  -0.30580885   0.31066816
H   -3.15414823   0.71815590   0.30678066
O   -0.60719698  -0.10060881  -2.28311964
H   -1.39357606   0.10464699  -1.77744203
H    0.03025195   0.56107759  -2.01467632
O    1.31377554  -0.96836168  -4.18536135
H    0.53534197  -0.65511296  -3.72476579
H    1.96130333  -0.27434749  -4.06173325
O    2.00777769  -3.22401869  -2.88910593
H    1.81638752  -2.46039024  -3.43359949
H    2.14721580  -3.93550836  -3.51406297
O   -4.18999574   1.21733165   1.78059678
H   -5.03462461   1.66388566   1.83910698
H   -3.56429760   1.83728844   2.15527966
O    0.55690236   0.29989222   2.28497875
H    0.15961734   0.42024677   3.14748164
H    0.25923727   1.05412010   1.77628665
O   -3.02531561  -0.81766926   3.28373733
H   -2.50293377  -1.27936992   2.62785504
H   -3.55910133  -0.20514264   2.77765848
O   -1.12856875   0.73631333   4.43383375
H   -1.82386366   0.14535575   4.14475594
H   -1.13284807   0.66320633   5.38822827
O    1.32110649   1.55009849  -1.31287141
H    1.92587691   1.62085939  -2.05143589
H    1.71855978   0.89503721  -0.73914896
O   -2.22254651   2.73582155   2.81784320
H   -1.57123992   2.80761470   2.12007725
H   -1.80467674   2.18584145   3.48051853
O   -1.19596818  -1.52414803   1.27459735
H   -0.52609599  -0.97568100   1.68287057
H   -0.71757827  -2.05032174   0.63388200
O   -0.50825673   2.22937845   0.68251913
H    0.15195418   2.28613700  -0.00822820
H   -1.19811474   1.67985325   0.31056506
O    4.14877978  -0.90435806  -1.70123015
H    3.65026823  -0.80140332  -0.89060175
H    3.92658359  -1.78283289  -2.00968219
O    2.24456123  -0.48985687   0.24629853
H    1.89059082  -0.29206741   1.11337183
H    1.66782327  -1.17151737  -0.09858427
O    0.45427154  -2.17331104  -0.87697616
H    0.91730709  -2.71056485  -1.51977338
H   -0.01602427  -1.52456878  -1.40060501
