48
Energy:   -672.29878362
O    3.20865375   0.84784969  -3.31112010
H    3.62880765   0.28761104  -2.65855961
H    3.93527364   1.28038966  -3.75963382
O   -2.37997071   0.32712465  -0.31338117
H   -2.03408338  -0.36378907   0.25162505
H   -3.17998097   0.61739235   0.12475134
O   -0.52012755  -0.26532936  -2.30634976
H   -1.33132592  -0.06440117  -1.83964116
H    0.08394564   0.43091977  -2.04834863
O    1.46882986  -1.21177549  -4.03447387
H    0.67409387  -0.88398573  -3.61354582
H    2.07613411  -0.47232597  -4.00941779
O    2.26465692  -3.32764492  -2.55350777
H    2.04963250  -2.61779408  -3.15857648
H    2.48221854  -4.06805650  -3.11980229
O   -4.27151147   1.16913776   1.52526930
H   -5.12991702   1.59265150   1.52246547
H   -3.67782851   1.83237920   1.87723975
O    0.44623328   0.48934761   2.26549175
H    0.01922330   0.65591684   3.10581849
H    0.14408046   1.19850922   1.69801900
O   -3.09939383  -0.70234072   3.23203132
H   -2.56197240  -1.21157319   2.62532518
H   -3.64782789  -0.15751966   2.66756525
O   -1.29424407   0.99535730   4.32058377
H   -1.95922794   0.35739731   4.06167190
H   -1.32023011   0.99419287   5.27743027
O    1.32840534   1.50365316  -1.36987075
H    1.96316896   1.52365285  -2.08604601
H    1.70585871   0.89850387  -0.73147029
O   -2.39237564   2.82553243   2.51824461
H   -1.72405535   2.86705135   1.83424460
H   -1.97707179   2.33903985   3.23033977
O   -1.18882606  -1.47568117   1.32896357
H   -0.56653223  -0.86588917   1.72536735
H   -0.65925789  -2.00538961   0.73297835
O   -0.61267653   2.24594600   0.47939175
H    0.07159293   2.28224473  -0.18895663
H   -1.26814821   1.64836122   0.11955686
O    4.21517625  -0.84067970  -1.43589261
H    3.68134184  -0.63837994  -0.66756490
H    3.99419498  -1.74713838  -1.64974250
O    2.21811543  -0.38294130   0.38027381
H    1.79731104  -0.13116767   1.20232341
H    1.68622793  -1.10715870   0.05036974
O    0.54762930  -2.20978852  -0.71268505
H    1.05893523  -2.80288745  -1.26316825
H    0.08038622  -1.64984504  -1.33266816
