48
Energy:   -668.44308836
O    3.06293726  -0.94889286  -3.02719865
H    3.89161953  -1.32057530  -3.32947289
H    2.72363334  -1.59287127  -2.40559066
O   -0.89627798   1.33415829  -0.92744273
H   -0.04396805   1.31109689  -0.49239352
H   -0.69892389   1.58963513  -1.82856136
O    0.55127005  -0.73426296  -4.18146252
H    1.47255291  -0.79962861  -3.93007225
H    0.32437450   0.18246147  -4.02536453
O   -1.85214160   2.60926166   1.34185871
H   -0.98957804   2.72204532   1.74122796
H   -1.66893420   2.26073032   0.46939507
O   -2.85794965   0.93425837   3.24824262
H   -2.67260162   1.56387903   2.55149606
H   -2.93087437   0.09268842   2.79804949
O   -1.54321360  -1.26358192  -0.43646612
H   -1.43927410  -0.34624215  -0.68928260
H   -1.34036435  -1.75615548  -1.23173671
O    0.86243522  -1.44708657   0.83307366
H    0.01416082  -1.42682420   0.39007047
H    0.64877648  -1.59804598   1.75383044
O   -2.70193442  -1.54744066   2.03024564
H   -2.38656873  -1.46734583   1.13004503
H   -3.40793012  -2.19191930   1.98075615
O    2.52704923   1.62086175  -2.16014630
H    2.32546002   1.52169727  -1.22968403
H    2.83925149   0.75761881  -2.43139017
O   -0.48910270   0.86940088   4.48466099
H   -1.37144728   0.92001968   4.11705031
H   -0.62391487   0.86339562   5.43230094
O    1.48543765   1.15878167   0.36363554
H    1.31156241   1.63775018   1.17393697
H    1.39932525   0.23693501   0.60656606
O   -0.60747915  -2.60955329  -2.64213636
H   -0.98528121  -3.27178526  -3.22088179
H   -0.26404425  -1.94079940  -3.23463325
O    0.16423787   1.89375382  -3.41074622
H    0.15817545   2.68191299  -3.95388544
H    1.03235583   1.88681428  -3.00756525
O    0.62944971   2.51794991   2.60331102
H    0.32368492   1.94719332   3.30827673
H    1.03713978   3.25787536   3.05334545
O    1.87686038  -2.73281688  -1.39469875
H    1.02191343  -2.85592727  -1.80718073
H    1.67565282  -2.39984058  -0.52012791
O   -0.22966838  -1.62873918   3.31587825
H   -0.22647886  -0.79797846   3.79133414
H   -1.12148662  -1.70808804   2.97735817
