48
Energy:   -666.21261706
O   -3.60129419  -0.37045883  -2.49702090
H   -3.06219307   0.38195575  -2.25314771
H   -3.85746517  -0.76275906  -1.66233005
O    1.30424531   0.36082157   5.00781406
H    0.82897291   0.56673484   4.20286207
H    1.27763825   1.17138658   5.51625115
O    0.13094515  -0.44635314  -2.51704858
H   -0.38814689  -1.05859065  -3.03852775
H   -0.49931411   0.20970685  -2.21940718
O   -1.67525898  -0.11601278   0.83412699
H   -1.02508572  -0.75451770   0.54117981
H   -2.51566750  -0.55992654   0.72061071
O    0.18215670  -1.82324621  -0.16617994
H    0.31411588  -1.38596298  -1.00737077
H    0.96320765  -1.60560512   0.34256716
O   -1.98110093  -3.32069244  -1.05597050
H   -1.91375497  -3.07913133  -1.97973703
H   -1.15718741  -3.02384111  -0.66960584
O    2.18408135  -0.73950594   1.37221509
H    2.74852114  -0.09890282   0.93947128
H    2.65326182  -0.96977954   2.17413504
O    0.21638054   3.33201083  -1.26470012
H    0.14799315   4.27500960  -1.41405989
H    0.60724516   3.25460452  -0.39437549
O    2.08429438   1.51366333  -2.23759740
H    1.53766785   0.76940964  -2.48962466
H    1.46170645   2.21627890  -2.05065493
O    3.46102944   1.31555136   0.06970831
H    3.04428093   1.34314012  -0.79156481
H    4.38687011   1.48320764  -0.10619587
O    1.44028222   2.92458044   1.09160776
H    0.98450703   2.31337851   1.67034175
H    2.24070721   2.46440064   0.83904841
O    0.30436389   0.86085241   2.50538688
H   -0.51981574   0.60346129   2.09221670
H    0.95765698   0.27482056   2.12327870
O   -1.64706355   1.32367324  -1.48273405
H   -1.68091254   0.95788046  -0.59883262
H   -1.10742226   2.10956232  -1.39672546
O   -3.82307372  -1.64304756  -0.03500602
H   -4.54139270  -2.13165564   0.36687934
H   -3.22286677  -2.31724936  -0.35349524
O   -1.83645962  -2.10950503  -3.55466796
H   -2.51429089  -1.49512905  -3.27303205
H   -2.11995431  -2.39857871  -4.42201969
O    3.23727989  -1.17259439   3.84171400
H    2.61814383  -0.63854579   4.33940313
H    3.38264591  -1.94428924   4.38905998
