48
Energy:   -670.37166113
O    3.53074383   0.37005242  -3.06212878
H    3.96251951  -0.03148993  -2.30809605
H    4.23769445   0.80202767  -3.54155556
O   -2.38459948   0.06837864  -0.66114114
H   -2.09029675  -0.49680029   0.05313508
H   -3.20150171   0.45221898  -0.34244191
O   -0.21148285  -0.78978947  -2.25469344
H   -1.09497410  -0.54057151  -1.98346387
H    0.32767747  -0.02677633  -2.04648938
O    2.07469273  -1.97937626  -3.38142850
H    1.18990534  -1.64847466  -3.22687349
H    2.61851008  -1.19361257  -3.43683583
O    2.45450355  -3.87453598  -1.47307487
H    2.40154333  -3.24389051  -2.19120672
H    2.65611128  -4.70744817  -1.89950594
O   -4.37317937   1.36861511   0.75006483
H   -5.26092446   1.69954136   0.61357922
H   -3.86922585   2.13696105   1.01822003
O    0.14056874   0.93958353   2.15039611
H   -0.34451488   1.31159253   2.88696589
H   -0.12230829   1.46942278   1.39780201
O   -3.37657619  -0.01798943   2.94254553
H   -2.81010025  -0.67432354   2.53688262
H   -3.86538781   0.36148171   2.21227387
O   -1.78890569   1.95938349   3.83707427
H   -2.39033226   1.24681450   3.62082587
H   -1.93057381   2.11810984   4.77033090
O    1.43498758   1.22089725  -1.45756823
H    2.13632501   1.13877063  -2.10379797
H    1.77425837   0.78111496  -0.67800507
O   -2.70175958   3.31831990   1.56539518
H   -1.97498458   3.18705955   0.95646113
H   -2.35856709   3.03584817   2.41313363
O   -1.33380738  -1.26132852   1.47543609
H   -0.78793464  -0.54347324   1.79627655
H   -0.72072216  -1.85191633   1.03775539
O   -0.76774558   2.18270441  -0.09864401
H   -0.00802442   2.07822558  -0.67147886
H   -1.36543713   1.48324078  -0.36274111
O    4.42840319  -0.92752471  -0.82957817
H    3.79808235  -0.65423758  -0.16306363
H    4.35602591  -1.88173431  -0.85142835
O    2.19542732  -0.25772343   0.68624680
H    1.68290275   0.15338323   1.38233712
H    1.70328693  -1.04691954   0.45997442
O    0.62349303  -2.31082281  -0.14831485
H    1.18333446  -3.01488839  -0.47557787
H    0.25303141  -1.91293000  -0.93614184
