48
Energy:   -667.88988758
O    3.39664126  -0.49492403  -2.07580752
H    4.31158324  -0.62151662  -2.32697944
H    3.20375418  -1.22973908  -1.49350754
O   -1.30314675   1.38830309  -0.92246170
H   -0.52224377   1.59732075  -0.40988585
H   -1.00312774   1.39734457  -1.83138342
O    1.11063665  -1.07684108  -3.53093521
H    1.95655413  -0.85642622  -3.14097015
H    0.63312050  -0.24754755  -3.55289903
O   -2.86961399   2.85964486   0.82092025
H   -2.46704085   2.43800561   0.06171865
H   -3.26308073   2.14006073   1.31449340
O   -3.49301917   0.62621741   2.35416782
H   -2.75881238   0.82012823   2.93689489
H   -4.22152015   0.42981863   2.94318879
O    0.26420676  -0.36063389   2.06801567
H   -0.51107062  -0.57521667   1.54923724
H    0.77395717  -1.17065137   2.08407958
O    1.38504390  -2.85740802   1.77291084
H    0.59322509  -3.09963272   1.29272128
H    1.50703247  -3.56426955   2.40670688
O   -1.95853312  -0.81636495   0.56095935
H   -1.80548726  -0.13554228  -0.09424238
H   -2.62306818  -0.44559226   1.14160779
O    2.16462688   1.96349363  -1.77985204
H    1.85667391   2.02056216  -0.87534113
H    2.68270745   1.15906540  -1.80667733
O   -1.26506160   1.23015499   3.73798252
H   -0.63027426   0.62569577   3.35339712
H   -1.01304595   2.08965425   3.40037181
O    0.85054773   1.91233008   0.66072390
H    0.46847165   2.57680522   1.23406718
H    0.82400831   1.10637402   1.17643926
O    0.46978885  -3.32955521  -2.18734544
H    0.59499013  -2.52778891  -2.69501392
H    0.37951088  -4.01870127  -2.84549393
O    0.02793036   1.45978480  -3.33085605
H    0.80549713   1.71610389  -2.83495052
H   -0.01744292   2.09086623  -4.04912435
O   -0.70726309   3.52847602   2.27707323
H   -1.50415644   3.39657253   1.76346414
H   -0.71992120   4.45799458   2.50525490
O    2.68945195  -2.68201471  -0.65906704
H    1.96745735  -3.02501037  -1.18566899
H    2.36951739  -2.72250546   0.24217334
O   -0.79654724  -3.31672108   0.27141216
H   -0.47349450  -3.34429976  -0.62920329
H   -1.34122772  -2.53040878   0.30702090
