48
Energy:   -669.26884247
O    2.97843776   0.54287292  -3.60654267
H    3.53468295   0.14898989  -2.93447178
H    3.58172424   0.77155351  -4.31363705
O   -2.43210033   0.07001854  -0.21160604
H   -2.01531132  -0.51735154   0.41888200
H   -3.18727070   0.42701249   0.25583902
O   -0.61327588  -0.66770241  -2.17255536
H   -1.41103332  -0.46212998  -1.68515933
H   -0.05344118   0.09913255  -2.05097780
O    1.37362898  -1.68964451  -3.86749045
H    0.54100967  -1.40091453  -3.49384366
H    1.91589104  -0.90101733  -3.88332951
O    2.25493006  -3.63326328  -2.20229234
H    2.00039587  -2.97633283  -2.85027890
H    2.55418920  -4.37943797  -2.72181053
O   -4.20045126   1.24327735   1.52873433
H   -5.10074163   1.56354315   1.47270834
H   -3.68882275   2.00959390   1.78801614
O    0.49170667   0.80642340   2.21076288
H    0.06808218   1.09336277   3.01973751
H    0.10691877   1.35802518   1.52965672
O   -2.94317318  -0.37406342   3.41164649
H   -2.36867104  -0.92086610   2.87574914
H   -3.48223620   0.10012545   2.77856844
O   -1.25624337   1.58538176   4.21883383
H   -1.87626366   0.87152897   4.06976716
H   -1.22786223   1.68379344   5.17053836
O    1.13635291   1.35295847  -1.65703804
H    1.72192043   1.34089309  -2.41413576
H    1.62055299   0.89229962  -0.97178221
O   -2.43029630   3.14612987   2.23652009
H   -1.80083726   3.02903359   1.52497134
H   -1.99975890   2.76677865   3.00265457
O   -1.02868688  -1.37378668   1.61484305
H   -0.42955262  -0.68691969   1.90721905
H   -0.48926061  -1.94681936   1.06997178
O   -0.75596533   2.16835658   0.22643405
H   -0.13577738   2.18978884  -0.50235907
H   -1.39569103   1.50121695  -0.02237831
O    4.31458385  -0.76142681  -1.57734574
H    3.78926706  -0.48621064  -0.82599351
H    4.21974501  -1.71363298  -1.60060202
O    2.30888100  -0.15418178   0.28553281
H    1.93727817   0.19884997   1.09393355
H    1.81479854  -0.95821194   0.12537706
O    0.71266128  -2.25672990  -0.38204387
H    1.21508073  -2.89796987  -0.88465491
H    0.17860992  -1.80485022  -1.03536289
