48
Energy:   -672.65269283
O    3.21000919   0.86144664  -3.36382965
H    3.61873226   0.30558682  -2.70035610
H    3.94396452   1.29659325  -3.79763702
O   -2.38680113   0.35491001  -0.26520702
H   -2.04156361  -0.34511115   0.28888077
H   -3.18721459   0.63815385   0.17676930
O   -0.56838999  -0.24576704  -2.31081803
H   -1.36526935  -0.04884820  -1.81843799
H    0.04046334   0.45295918  -2.07142057
O    1.43554259  -1.15993880  -4.05208061
H    0.64504979  -0.83014803  -3.62477390
H    2.04822987  -0.42507610  -4.02339350
O    2.26241235  -3.28259611  -2.61847023
H    2.03281081  -2.55210235  -3.19283409
H    2.49138816  -3.99469652  -3.21572639
O   -4.24544430   1.17952627   1.62005061
H   -5.09865561   1.61294100   1.64039718
H   -3.63671479   1.83154544   1.96725549
O    0.47160754   0.45881921   2.26639771
H    0.05360283   0.61661391   3.11292281
H    0.17111749   1.17922898   1.71236942
O   -3.06151967  -0.72439166   3.27925179
H   -2.52631321  -1.22241293   2.66138392
H   -3.60799251  -0.16526622   2.72700363
O   -1.20888445   0.93830700   4.36535851
H   -1.88833825   0.31183248   4.11615166
H   -1.21241598   0.92807469   5.32249731
O    1.29718213   1.51226102  -1.41297260
H    1.91622634   1.53618403  -2.14266007
H    1.69182050   0.90910582  -0.78313436
O   -2.34028009   2.79758284   2.60830095
H   -1.68233433   2.85302481   1.91528911
H   -1.91326490   2.29956240   3.30534150
O   -1.18592547  -1.48855158   1.33070073
H   -0.55288416  -0.88594806   1.72103334
H   -0.66848149  -2.02336865   0.72865898
O   -0.58370171   2.25493775   0.50809909
H    0.08465257   2.30948418  -0.17495222
H   -1.24219658   1.65818555   0.15242624
O    4.13899902  -0.90507139  -1.51781121
H    3.61272422  -0.70309325  -0.74420180
H    3.87518187  -1.79202430  -1.76265178
O    2.18596110  -0.38406527   0.32406199
H    1.79462405  -0.14470156   1.16417637
H    1.64246687  -1.10335609   0.00239977
O    0.51442255  -2.20894415  -0.75245033
H    1.02778047  -2.78945623  -1.31432328
H    0.03300416  -1.64925068  -1.36172154
