48
Energy:   -666.79718456
O    3.40762210  -0.63035811  -2.88510486
H    4.28255118  -1.00604533  -2.98303369
H    3.09997719  -0.95587917  -2.03916013
O   -0.77270079   1.36882473  -1.14391363
H    0.11594565   1.39403352  -0.78908429
H   -0.66321576   1.54631903  -2.07811953
O    0.91243930  -0.89177425  -4.10822320
H    1.83343214  -0.79891580  -3.86454032
H    0.56787382   0.00104781  -4.08885165
O   -1.27272713   2.51138681   1.34054519
H   -1.33163709   2.25584240   0.41997009
H   -2.05850784   2.14154096   1.74303068
O   -3.23359586   1.20444930   2.76448518
H   -4.13003866   1.44047681   3.00304996
H   -3.30216794   0.31103729   2.42781813
O   -1.47693166  -1.12951494  -0.31426520
H   -1.35703427  -0.24033497  -0.64775500
H   -1.10558664  -1.69264366  -0.99339757
O    0.41330541  -1.29830127   1.62378988
H   -0.27180842  -1.24885298   0.95715224
H   -0.01400316  -1.70551689   2.37732467
O   -3.17984429  -1.33558296   1.87981008
H   -2.71334511  -1.35229100   1.04414794
H   -2.57563483  -1.74343459   2.50014855
O    2.60354524   2.02431464  -2.68600078
H    2.42664225   2.01278998  -1.74536038
H    3.04236635   1.19117540  -2.85789287
O   -1.04124688   0.54416116   4.36744923
H   -1.81091953   0.91468326   3.93553578
H   -0.29738683   0.93743378   3.91111524
O    1.75878435   1.27362088  -0.15432563
H    1.65677464   1.40273781   0.78862436
H    1.92957907   0.33677515  -0.25118166
O    0.03177659  -2.51401088  -2.16240307
H    0.24636317  -1.96201585  -2.91439105
H   -0.11478370  -3.38281041  -2.53648769
O    0.14132801   1.74012652  -3.73855368
H   -0.03256589   2.41522409  -4.39447748
H    1.01855912   1.94203931  -3.41308684
O    0.84516708   1.27019352   2.44730444
H    0.66691314   0.36531762   2.19106826
H    0.11646267   1.77130697   2.08109817
O    2.05231586  -1.46038461  -0.60464251
H    1.39072465  -1.88842900  -1.14806400
H    1.74549246  -1.58894724   0.29288904
O   -1.20135592  -2.05567554   3.71333716
H   -1.19506546  -2.61144461   4.49264007
H   -1.14722029  -1.16305817   4.05470997
