48
Energy:   -664.51333422
O    3.27151888   1.38017925  -2.22074697
H    3.80761433   1.86406874  -2.84898615
H    2.61469038   0.93647554  -2.75734289
O   -1.95428707   0.83956762  -0.82232244
H   -1.28650238   1.31823403  -0.33122782
H   -2.77154702   1.02546995  -0.35998237
O   -1.18333705  -0.31076765  -3.19126816
H   -1.47405427   0.16968085  -2.41610070
H   -1.87133013  -0.15954285  -3.83936415
O    1.53912375  -0.11621645  -3.65053930
H    1.79123848  -0.99717255  -3.37379691
H    0.58701595  -0.09752293  -3.55372430
O    2.24623016  -2.51974269  -2.47884551
H    2.78071882  -2.05077137  -1.83804943
H    2.80877223  -3.23052912  -2.78635311
O   -4.07771207   1.14296616   0.91904096
H   -3.94477750   0.30349624   1.35932551
H   -5.02862713   1.24446896   0.87793634
O    0.33978761  -0.50614358   2.19740380
H   -0.25626523  -0.40014865   2.93883346
H   -0.15759973  -1.02000293   1.56117566
O   -3.40784116  -1.14688689   2.16063373
H   -2.87688914  -0.86757619   2.90649386
H   -2.77915727  -1.52868964   1.54808571
O   -1.68728137   0.04767637   3.99117074
H   -1.89791689   0.90319458   3.61706764
H   -1.79611037   0.16504456   4.93489358
O    2.45145078   2.29305964   0.26056533
H    2.72121436   2.08095587  -0.63300697
H    2.75691401   1.55319967   0.78547607
O   -2.26066975   2.31760241   2.66740142
H   -1.49886814   2.41221958   2.09561672
H   -2.97488422   2.07614171   2.07763344
O   -1.35751421  -1.55673037   0.34203556
H   -1.59066220  -0.73685841  -0.09349151
H   -1.05158001  -2.12530166  -0.36462051
O   -0.14390979   1.86679985   0.93673451
H    0.05357848   1.05429208   1.40263296
H    0.70986791   2.19586283   0.65564192
O    3.74612414  -0.97532911  -0.85102612
H    3.71837732  -0.14071166  -1.31886763
H    3.52359285  -0.75142585   0.05262149
O    2.99198783  -0.06276889   1.65078879
H    3.49081821  -0.17494390   2.45999635
H    2.09478624  -0.29788566   1.88739240
O   -0.46519970  -2.70327305  -1.95230811
H    0.48064007  -2.74222464  -2.09408873
H   -0.75800712  -1.96602520  -2.48799577
