48
Energy:   -663.28231689
O    3.08295132  -0.83527366  -2.43154879
H    3.91489698  -1.19807168  -2.73564722
H    2.89897539  -1.30556256  -1.61839871
O   -1.28131411   1.50569489  -1.23676001
H   -0.45819428   1.71791346  -0.79668177
H   -1.04094753   1.39967575  -2.15720322
O    0.50636499  -1.51061080  -3.23805455
H    1.43656611  -1.34471813  -3.08496194
H    0.15167974  -0.66196518  -3.50306557
O   -2.81983794   2.92970795   0.55801821
H   -2.43953652   2.51882171  -0.21836776
H   -3.14194574   2.19745548   1.08364615
O   -3.23857882   0.68695490   2.15310277
H   -2.50309459   0.97068261   2.69605156
H   -3.94160212   0.50587647   2.77696228
O    0.48463029  -0.14019633   1.87147587
H   -0.25230738  -0.43599913   1.33700845
H    0.93926227  -0.94507801   2.11988498
O    1.68012450  -2.57155071   2.40178497
H    1.06107578  -3.24068996   2.10978635
H    2.10181262  -2.95413920   3.17122439
O   -1.68303911  -0.69013490   0.30535488
H   -1.60842720   0.02116844  -0.33081527
H   -2.35099754  -0.39118840   0.92235923
O    2.08537683   1.73810179  -2.35022832
H    1.87027804   1.90423006  -1.43242346
H    2.54601683   0.89908349  -2.34069252
O   -1.02791634   1.53820233   3.42918584
H   -0.40184047   0.91758774   3.05622689
H   -0.81004827   2.37492739   3.01850772
O    0.97905331   2.00070614   0.20251397
H    0.61750494   2.70343006   0.74260073
H    1.00011142   1.23920736   0.78208969
O   -0.34255203  -2.74199915  -0.94653393
H   -0.91230509  -2.07839977  -0.55762627
H   -0.16687499  -2.41932544  -1.83041803
O   -0.15712967   1.14596633  -3.71244592
H    0.66696618   1.41781592  -3.30847107
H   -0.19566303   1.63722405  -4.53306329
O   -0.54779212   3.71514779   1.76908296
H   -1.38306233   3.53713244   1.33680288
H   -0.56128433   4.65711176   1.93865208
O    2.28930334  -2.25785174  -0.29017226
H    1.38985906  -2.46602262  -0.54295024
H    2.29466534  -2.33594059   0.66382209
O   -0.06393063  -4.33800797   1.27981721
H   -0.22684682  -3.89186476   0.44876583
H   -0.41076267  -5.22071819   1.15034885
