48
Energy:   -672.93532068
O    3.18399320   0.85259262  -3.35214003
H    3.58957411   0.27273495  -2.70754631
H    3.92119222   1.28294715  -3.78522712
O   -2.39362548   0.31321365  -0.28617540
H   -2.04027725  -0.36746318   0.28658627
H   -3.19565349   0.60118744   0.14977644
O   -0.54925174  -0.30183918  -2.28799318
H   -1.35258424  -0.10157586  -1.80759401
H    0.05306924   0.40408584  -2.05323553
O    1.43957134  -1.23124349  -4.01929636
H    0.65100165  -0.90345830  -3.58692319
H    2.03217836  -0.47981624  -4.03944227
O    2.32084114  -3.29703972  -2.52084598
H    2.08131696  -2.60491305  -3.13714191
H    2.56479229  -4.03820293  -3.07527973
O   -4.26186272   1.16263450   1.56681587
H   -5.12078931   1.58506038   1.57259036
H   -3.66321275   1.83153716   1.89910985
O    0.46276868   0.50989704   2.24362787
H    0.05018195   0.68124408   3.09017629
H    0.15011508   1.21526865   1.67712061
O   -3.06752182  -0.69179948   3.27164204
H   -2.52441116  -1.19857655   2.66795366
H   -3.61597181  -0.15020432   2.70409544
O   -1.24179514   1.01562021   4.31831154
H   -1.91247989   0.37578328   4.07951767
H   -1.25142353   1.02754382   5.27538885
O    1.29159948   1.49712079  -1.40960432
H    1.93000808   1.52663155  -2.12220198
H    1.67825366   0.90404942  -0.76540192
O   -2.37241503   2.82395896   2.51200470
H   -1.71344132   2.86602481   1.81902854
H   -1.94311708   2.34786730   3.22282947
O   -1.17264832  -1.48017824   1.35046729
H   -0.54840374  -0.86153015   1.72971010
H   -0.64713286  -2.01953629   0.75957117
O   -0.61780045   2.25101005   0.45100251
H    0.05551767   2.28212070  -0.22863465
H   -1.27429277   1.64314277   0.11078632
O    4.14968887  -0.88454330  -1.49263430
H    3.64170317  -0.63819735  -0.71965561
H    3.86697707  -1.77724367  -1.69110832
O    2.21015526  -0.35330046   0.35426762
H    1.79357026  -0.09555137   1.17661438
H    1.68668147  -1.09087968   0.04092448
O    0.55722866  -2.21881515  -0.69176304
H    1.08172112  -2.79687257  -1.24582904
H    0.06976110  -1.67263431  -1.30844263
