48
Energy:   -663.96806178
O    3.00867980   2.29711008  -2.69940104
H    2.87156377   1.49424347  -2.19657279
H    3.87549312   2.18991651  -3.09103358
O   -0.35156285   0.17403362  -2.12070842
H   -0.68999723   0.76769668  -1.45044117
H   -0.14741133   0.74215150  -2.86353819
O    2.20609205   0.18063196  -1.17517479
H    1.33712846   0.03673593  -1.54991211
H    2.33855187  -0.56090972  -0.58458002
O   -0.57445149   3.99849976  -1.91405993
H    0.28974648   4.10766508  -1.51722667
H   -0.89805137   4.89134351  -2.03383056
O   -2.72469721  -0.13936658   0.83698350
H   -2.59436332  -0.75633012   0.11684399
H   -2.33496356   0.67785870   0.52636739
O   -1.06544754  -1.35655191   2.57567033
H   -1.68929157  -0.83879165   2.06677468
H   -0.71321658  -1.99017378   1.95061950
O   -0.18354600  -3.05407249   0.65833338
H   -0.59647084  -3.85652535   0.97738561
H   -0.76014251  -2.74974632  -0.04249034
O   -1.60092326  -5.06929058   1.81787660
H   -2.09807016  -4.51759865   2.42179118
H   -1.45318743  -5.88198879   2.30153722
O    1.35875087   1.80697232   0.83282433
H    1.73099068   1.23142272   0.16468361
H    1.37781553   1.28628502   1.63578954
O   -2.80523478  -3.26619261   3.46825212
H   -3.67545843  -2.86822954   3.44441841
H   -2.20548596  -2.54289480   3.28556799
O   -1.16194945   1.90406161  -0.20339660
H   -1.14439647   2.69165577  -0.74710534
H   -0.33548335   1.92696055   0.27895313
O   -1.87576597  -1.87641113  -1.17969110
H   -2.37879012  -2.30512716  -1.87207909
H   -1.34032367  -1.22870994  -1.63796673
O    0.43460784   2.18159086  -3.77183978
H    0.01011865   2.88144207  -3.27560489
H    1.36598767   2.27710334  -3.57273974
O    1.87770856   4.00093615  -0.81630599
H    2.40289901   3.53319237  -1.46563070
H    1.80929131   3.39312011  -0.08002439
O    2.22968161  -1.69259456   0.77854372
H    1.49599012  -2.30188748   0.69674656
H    2.03925686  -1.19284670   1.57240916
O    1.30377393  -0.07341065   2.85829553
H    1.56099520  -0.09278995   3.78008375
H    0.43221341  -0.46889663   2.84397978
