48
Energy:   -672.72693705
O    3.23592392   0.75194927  -3.35834610
H    3.64766819   0.22074511  -2.67678858
H    3.96579476   1.19513306  -3.79090653
O   -2.38986949   0.30128430  -0.30847813
H   -2.04153316  -0.36504655   0.28388734
H   -3.20158931   0.59154862   0.10756202
O   -0.53837372  -0.37616223  -2.29405006
H   -1.34827484  -0.16558198  -1.82934803
H    0.05436285   0.34492808  -2.08209730
O    1.51069816  -1.33605331  -3.96474026
H    0.69988426  -1.01136635  -3.57308857
H    2.09853256  -0.58062945  -3.96057258
O    2.35471645  -3.37549666  -2.42711033
H    2.13116535  -2.67050013  -3.03475879
H    2.58033393  -4.11556123  -2.99069975
O   -4.30587875   1.18475542   1.49860640
H   -5.16776428   1.60088742   1.48379648
H   -3.71525463   1.86735565   1.81712159
O    0.44514516   0.57050448   2.25303506
H    0.00851512   0.76160594   3.08313522
H    0.13671520   1.25299003   1.65695093
O   -3.09459558  -0.61600301   3.25126978
H   -2.54385611  -1.13625290   2.66624164
H   -3.64532829  -0.09767150   2.66453494
O   -1.30827635   1.14731703   4.28586843
H   -1.96465017   0.49322567   4.04593146
H   -1.33717147   1.17671220   5.24218053
O    1.29200514   1.46055762  -1.46476298
H    1.92200434   1.46569687  -2.18539219
H    1.69414216   0.90334789  -0.79840349
O   -2.44679695   2.90091809   2.42387048
H   -1.77695440   2.93093644   1.74075871
H   -2.02604780   2.44480887   3.15268210
O   -1.17162579  -1.44191175   1.38118384
H   -0.54995410  -0.82031866   1.75983698
H   -0.63749766  -2.00342659   0.81936530
O   -0.62976883   2.26194414   0.40248592
H    0.05354786   2.29102500  -0.26718896
H   -1.26971043   1.63503181   0.06531011
O    4.19250426  -0.90363492  -1.42505588
H    3.64319357  -0.66618125  -0.67799138
H    3.99584759  -1.82688587  -1.58369284
O    2.20533931  -0.32731716   0.38109931
H    1.80841661  -0.05785395   1.20939502
H    1.67411426  -1.06859927   0.09035437
O    0.58304610  -2.23792043  -0.63461262
H    1.11182002  -2.82927693  -1.17026874
H    0.10126959  -1.70629784  -1.26825342
