48
Energy:   -672.66110443
O    3.16207692   0.79392111  -3.42619921
H    3.58780505   0.26179856  -2.75401397
H    3.88218589   1.24477126  -3.86711765
O   -2.39896412   0.29069533  -0.26963590
H   -2.04010883  -0.37733991   0.31447337
H   -3.20434421   0.57803836   0.16051378
O   -0.58266403  -0.38068964  -2.28824593
H   -1.38395910  -0.17314089  -1.80753647
H    0.01296444   0.34041138  -2.08459946
O    1.46081996  -1.32148335  -3.99669297
H    0.65126958  -1.00265405  -3.59768432
H    2.03842873  -0.55832234  -4.01030283
O    2.34233248  -3.34816612  -2.45872888
H    2.11073432  -2.64760694  -3.06849192
H    2.57579036  -4.08749412  -3.02008739
O   -4.28840095   1.16346349   1.57448604
H   -5.15164170   1.57703736   1.57250884
H   -3.69535620   1.84735552   1.88564750
O    0.48052243   0.55760701   2.25211633
H    0.06075554   0.74479659   3.09175177
H    0.15666447   1.24023058   1.66443195
O   -3.04628156  -0.63907784   3.30154391
H   -2.49541972  -1.15824274   2.71566773
H   -3.59714577  -0.11992925   2.71565553
O   -1.24628107   1.11676097   4.31184616
H   -1.90866969   0.46472633   4.08310177
H   -1.25708861   1.14440631   5.26858582
O    1.25088344   1.45896510  -1.48324452
H    1.87244988   1.48002602  -2.21087317
H    1.67158997   0.90686368  -0.82413764
O   -2.41733817   2.87433197   2.47573874
H   -1.75780140   2.90921983   1.78289971
H   -1.98340624   2.41929606   3.19745701
O   -1.14759559  -1.44948971   1.39542757
H   -0.52126490  -0.82799113   1.76648180
H   -0.62155301  -2.00687926   0.82199236
O   -0.63281829   2.25315175   0.42394165
H    0.03948462   2.28161680  -0.25681556
H   -1.28000359   1.62871645   0.09612525
O    4.17614985  -0.88472567  -1.50771510
H    3.64440813  -0.63037545  -0.75353438
H    3.95097361  -1.80224258  -1.66163142
O    2.22589922  -0.31166196   0.34597792
H    1.83831728  -0.04788003   1.18050244
H    1.69657715  -1.05624046   0.06022827
O    0.59054902  -2.22527296  -0.64766462
H    1.12097843  -2.80259678  -1.19682189
H    0.09632665  -1.69048932  -1.26893956
