48
Energy:   -673.18438190
O    3.23113429   0.79840919  -3.37762331
H    3.63039758   0.25837420  -2.69558014
H    3.96946058   1.24105635  -3.79615602
O   -2.39493908   0.29780025  -0.29195468
H   -2.04271910  -0.37061981   0.29574213
H   -3.20691762   0.58238978   0.12748720
O   -0.55500375  -0.36705772  -2.29858044
H   -1.35999406  -0.16343352  -1.82238759
H    0.03651813   0.35608327  -2.09025178
O    1.50835691  -1.28946552  -3.98360572
H    0.69949142  -0.96764832  -3.58560803
H    2.09027673  -0.52951813  -3.99261343
O    2.40214321  -3.31461224  -2.45712054
H    2.16218856  -2.60922820  -3.05802566
H    2.64392412  -4.04411783  -3.02773025
O   -4.30357344   1.15412613   1.54331615
H   -5.16474108   1.57195064   1.53662042
H   -3.70944456   1.83397439   1.86119831
O    0.44847957   0.55411119   2.25417634
H    0.01748524   0.73465432   3.08956841
H    0.13539800   1.24359333   1.66866276
O   -3.07572496  -0.65625568   3.27520472
H   -2.52394158  -1.17120933   2.68648604
H   -3.62714834  -0.13448485   2.69217873
O   -1.27899520   1.09751616   4.31039438
H   -1.93976319   0.44542434   4.07716966
H   -1.29479861   1.12363055   5.26710758
O    1.26756919   1.47563308  -1.47616918
H    1.89800817   1.49771458  -2.19609344
H    1.67714373   0.91700117  -0.81555512
O   -2.43980955   2.86124127   2.46973515
H   -1.77472542   2.90211077   1.78254912
H   -2.01085178   2.40218228   3.19187913
O   -1.16252309  -1.45596860   1.37392998
H   -0.54025153  -0.83492989   1.75250742
H   -0.62924353  -2.01683179   0.81065630
O   -0.63755602   2.26011802   0.42245837
H    0.04016902   2.29737439  -0.25247317
H   -1.27841084   1.63441752   0.08476644
O    4.15274088  -0.91968987  -1.46472996
H    3.61821336  -0.66882982  -0.71134996
H    3.89336578  -1.82156154  -1.65336691
O    2.19246804  -0.31522437   0.35870703
H    1.79964144  -0.05636291   1.19231956
H    1.66635763  -1.05951103   0.06634243
O    0.58481372  -2.23252014  -0.65814523
H    1.12517207  -2.80878232  -1.19866961
H    0.09315162  -1.70471652  -1.28736981
