48
Energy:   -666.13784035
O    2.51180055  -0.50037618  -0.66463998
H    2.89877876  -1.32884944  -0.38159975
H    1.96200540  -0.22880660   0.07034784
O   -1.34683173   1.31765830  -1.57207571
H   -0.63795717   1.79328917  -1.13905840
H   -0.99272317   1.08942766  -2.43158123
O    0.79215167  -1.67674194  -2.42211377
H    1.42532194  -1.24289686  -1.85018221
H    0.49150062  -0.98717041  -3.01400219
O   -3.11584676   2.70809971   0.07508998
H   -2.68651049   2.26829745  -0.65871940
H   -3.37414469   1.99795251   0.66263144
O   -3.29559920   0.62340371   1.90578138
H   -2.55634763   0.96835586   2.40652781
H   -3.92604489   0.34454014   2.56986360
O    0.75564954   0.18495377   1.38633804
H   -0.04067139  -0.15451266   0.97784402
H    1.08865406  -0.54599900   1.90696062
O    1.44955454  -2.24453392   2.47584249
H    0.69313041  -2.64573531   2.04795016
H    1.47988963  -2.65223717   3.34134216
O   -1.53906318  -0.71234810   0.27103988
H   -1.53798666  -0.16188853  -0.51204693
H   -2.25292347  -0.36629793   0.80665598
O    2.18774349   1.71655398  -2.33046491
H    1.77885221   2.24994570  -1.64889831
H    2.56306938   0.97229814  -1.85988488
O   -1.04288845   1.63056045   2.98805140
H   -0.30628960   1.16038978   2.59741919
H   -1.00410087   2.50387560   2.59811804
O    0.64238839   2.54134877  -0.14924105
H    0.14684365   3.17623903   0.36804186
H    0.85243109   1.84055680   0.46801459
O    0.89290953  -4.04803234  -1.12826227
H    0.79657457  -3.26615236  -1.67196726
H    0.86613451  -4.77651064  -1.74861242
O    0.17276249   0.66408078  -3.78613941
H    0.92968285   1.07633563  -3.36978697
H    0.24737121   0.90296527  -4.71004395
O   -1.13364636   3.92627960   1.42730933
H   -1.89123553   3.59750477   0.94336965
H   -1.33728829   4.84627108   1.59576551
O    3.03190963  -2.98050005   0.30877913
H    2.38839050  -3.48840876  -0.18532989
H    2.60894202  -2.81129380   1.15062204
O   -0.59755907  -3.20533051   1.03246194
H   -0.18441294  -3.60703083   0.26814592
H   -1.05392105  -2.43953847   0.68385307
