48
Energy:   -665.26987041
O    3.34220157  -1.05368329  -2.76871779
H    4.18763404  -1.44935664  -2.98065738
H    2.91742208  -1.68928252  -2.19269015
O   -0.71980604   1.44084354  -1.15657264
H    0.07405390   1.40053240  -0.62328731
H   -0.41020130   1.68020226  -2.03011952
O    0.98526118  -0.74383746  -4.19471691
H    1.86956518  -0.84158890  -3.84161219
H    0.78202699   0.18439486  -4.07933725
O   -2.19690794   1.99484818   1.13791222
H   -1.84623743   2.01329769   0.24745073
H   -2.39239399   1.07190941   1.29977973
O   -3.30268691   1.27330577   3.71054286
H   -3.21763693   1.97707721   3.06734451
H   -3.44182862   0.48460268   3.18631117
O   -1.47393471  -1.14589439  -0.73162328
H   -1.29230610  -0.24747569  -1.00746151
H   -1.23274791  -1.68222587  -1.48687776
O    0.73593085  -1.45915080   0.82171411
H   -0.06201830  -1.39772572   0.29660845
H    0.42447113  -1.53380598   1.72374033
O   -2.66352037  -0.66488030   1.73018527
H   -2.47950106  -0.97120652   0.84219147
H   -1.96517087  -1.04350826   2.26420839
O    2.81912655   1.55058467  -1.99304177
H    2.51869883   1.48180756  -1.08681622
H    3.12249678   0.66973205  -2.21280762
O   -0.82838069   0.83400175   4.70036959
H   -1.73213478   1.02030664   4.44590763
H   -0.73768164   1.22676445   5.56855332
O    1.48785415   1.13212842   0.40137584
H    1.18672522   1.59335481   1.18420625
H    1.35999514   0.20554620   0.60467194
O   -0.39043628  -2.59076508  -2.80498851
H    0.03510937  -1.93296549  -3.35493619
H   -0.76255858  -3.21775601  -3.42518139
O    0.63327475   1.91510238  -3.51109386
H    0.72671361   2.69851789  -4.05309126
H    1.44624768   1.87328739  -3.00754807
O    0.15514973   2.22861075   2.50722914
H   -0.05423037   1.79598321   3.33501247
H   -0.68177221   2.28160265   2.04572576
O    1.92874646  -2.80276316  -1.28282431
H    1.64068535  -2.44219693  -0.44422748
H    1.12432962  -2.89525469  -1.79330518
O   -0.53924499  -1.50027542   3.28460235
H   -0.52798007  -0.71671612   3.83427477
H   -0.53745489  -2.22891849   3.90533411
