48
Energy:   -665.96245700
O    3.36155734  -0.32567392  -2.77377153
H    4.24550635  -0.58950298  -3.02923234
H    3.04502552  -1.04483351  -2.22710075
O   -0.94779754   1.39713455  -0.87226765
H   -0.13652576   1.43509066  -0.36568175
H   -0.71079764   1.74628144  -1.73142965
O    0.93068939  -0.25910061  -4.10607155
H    1.83390447  -0.25292946  -3.78921783
H    0.60392583   0.62044841  -3.91672806
O   -2.25839621   2.29903322   1.40055982
H   -1.95178886   2.07900135   0.52089525
H   -1.45980539   2.49163633   1.89187295
O   -3.24212296   0.37027139   3.07208482
H   -3.13403508  -0.42562809   2.55141901
H   -3.05184119   1.08343014   2.46263483
O   -1.36737006  -1.27322861  -0.59874347
H   -1.33895118  -0.33335093  -0.77778025
H   -1.05775483  -1.68105556  -1.40747546
O    0.93077598  -1.33738192   0.85936519
H    0.12223070  -1.34044047   0.34704007
H    0.67163316  -1.66996412   1.71870560
O   -2.68218407  -1.97782477   1.69153664
H   -2.31227009  -1.74481884   0.84000641
H   -3.48419540  -2.45644515   1.48193652
O    2.50561631   2.11350420  -1.79027040
H    2.24683454   1.92939326  -0.88729365
H    2.92320890   1.30590497  -2.08965603
O   -0.79225256   0.34654708   4.24260016
H   -1.71521965   0.39672945   3.99391294
H   -0.51869443  -0.53053981   3.97405523
O    1.33278729   1.35799588   0.60211182
H    1.03727933   1.77184700   1.41305827
H    1.32397814   0.42030242   0.79416711
O   -0.14111102  -2.35304069  -2.80693321
H    0.17441526  -1.60735341  -3.31744816
H   -0.40825708  -2.99705571  -3.46276054
O    0.22921311   2.26226746  -3.21057404
H    1.06047218   2.30672846  -2.73806645
H    0.17682525   3.09324447  -3.68276528
O    0.12717873   2.43357855   2.82254343
H    0.34721096   3.13229271   3.43867343
H   -0.14101574   1.70061972   3.37668685
O    2.23698659  -2.33069513  -1.36502082
H    1.43637403  -2.49942132  -1.86179325
H    1.93020145  -2.07298483  -0.49571068
O   -0.35116221  -2.16907326   3.16282272
H   -0.35786465  -2.93365074   3.73867705
H   -1.20274422  -2.18997839   2.72624179
