48
Energy:   -672.00777282
O    4.21688491   1.70062260  -1.36495957
H    4.80510246   2.43279004  -1.54979137
H    3.73943742   1.56388276  -2.18323701
O   -1.92698040   1.50790037  -0.14599713
H   -1.30383622   1.52874959   0.58028690
H   -2.77603549   1.67958091   0.26126581
O    0.28493275   1.50144411  -1.90170212
H   -0.56555615   1.73793660  -1.53160514
H    0.89371365   1.56820722  -1.16606611
O    2.59617535   1.20307061  -3.47881404
H    2.56955004   0.25650443  -3.61858317
H    1.72871803   1.41968384  -3.13701241
O    2.46734944  -1.55769609  -3.60995607
H    3.08447202  -1.75152291  -2.90439053
H    2.72366779  -2.14495991  -4.32104957
O   -4.21240898   1.47082260   1.45831780
H   -4.27178370   0.51580685   1.43279512
H   -5.12167087   1.76863607   1.43035723
O   -0.38147932  -1.45223797   1.85248571
H   -0.96410192  -1.61197437   2.59495931
H   -0.95847441  -1.45943849   1.08877328
O   -4.10885154  -1.22009983   1.46125931
H   -3.64339900  -1.47426283   2.25812000
H   -3.50233120  -1.43105257   0.75142562
O   -2.44278074  -1.43997056   3.70703369
H   -2.45554079  -0.48507702   3.77220547
H   -2.58696476  -1.74363228   4.60326601
O    2.01951424   1.33208509   0.19306677
H    2.85257107   1.56182254  -0.21859919
H    2.03306145   0.37639963   0.24515904
O   -2.42739903   1.26376192   3.57798974
H   -1.60870332   1.48051684   3.13191072
H   -3.11009561   1.46597231   2.93824903
O   -1.97540042  -1.20831736  -0.33146211
H   -2.02043509  -0.25260973  -0.36021372
H   -1.38002414  -1.44204790  -1.04359200
O   -0.18968864   1.26686753   1.92085589
H   -0.16644567   0.31383876   2.00704047
H    0.65206584   1.49263517   1.52498947
O    4.07078848  -1.76280823  -1.42274172
H    3.37332575  -1.79172610  -0.76780558
H    4.51492440  -0.92992603  -1.26373741
O    1.80019161  -1.39061407   0.14660966
H    1.20873142  -1.59321259   0.87142724
H    1.24359962  -1.41637145  -0.63170503
O    0.20968209  -1.19430107  -2.05149330
H    0.84984616  -1.42791598  -2.72368813
H    0.16179210  -0.23897348  -2.08737644
