37
Energy:  -1652.13797109
O   -0.24980420   1.83001580  -0.67780780
H   -0.23370371   2.71024993  -0.30209448
H   -0.71295655   1.93238943  -1.50921708
O   -0.99167989  -0.84600980  -1.47364375
H   -1.02093818  -1.71580830  -1.87217401
H   -1.38577799  -0.26893220  -2.12778440
O   -1.67527443   0.14993094   1.21816735
H   -1.73003632   0.89962071   1.81078715
H   -2.48636404  -0.33532705   1.36946232
O   -0.36717186   4.27578204   0.62867493
H    0.41061061   4.82209097   0.74195699
H   -1.06370099   4.89323508   0.40544689
O    1.86737875  -1.48009208   3.23610139
H    1.49155946  -1.66159937   4.09752278
H    2.78768136  -1.73014492   3.31825085
O   -0.78439333  -3.36302636  -2.62434269
H   -0.76703677  -3.44214999  -3.57810893
H   -1.32851335  -4.09454134  -2.33270748
O    1.07779588   0.73422791   1.72804731
H    0.65623704   1.41316624   2.25488955
H    1.53071764   0.18234797   2.36563830
O    1.66097204  -3.01922552  -1.33040915
H    0.94197451  -3.31383724  -1.88940676
H    2.34878403  -3.67217862  -1.46001924
O   -0.90592071   2.42076716   2.63888562
H   -1.17021879   2.73804003   3.50243428
H   -0.81489354   3.21311859   2.10961716
O    0.42952219  -1.92893629   0.88408251
H    0.83822691  -2.05998712   1.73966301
H    0.83091726  -2.59189593   0.32230109
O   -1.72479073   1.36706072  -2.98895235
H   -1.35119121   1.53970260  -3.85315720
H   -2.64288461   1.62597642  -3.06831315
O    1.81213907  -0.25841147  -0.98098953
H    2.55228599   0.28307569  -1.25522673
H    2.03014307  -1.13748849  -1.29071475
Ca   0.06662751  -0.05280932   0.11546087
