37
Energy:  -1645.25615949
O    2.97536578   2.00666828  -1.70819993
H    2.92473531   2.65450359  -2.41103548
H    3.82397567   1.58205285  -1.83387747
O    0.84717897  -0.26399386   4.41133511
H    0.95178738   0.37649240   5.11494458
H    1.05706491  -1.10439358   4.81865323
O   -2.05731968   0.13687299  -0.23817693
H   -2.37291589  -0.72943447  -0.49535831
H   -2.55485393   0.74544241  -0.78437725
O   -0.39955629   2.32058128   0.90402101
H   -1.04781698   2.99041984   1.12152096
H    0.43231786   2.79303040   0.87225506
O    1.53748716   0.36723873   1.77503347
H    2.11794280   1.11736942   1.64616513
H    1.63194754   0.14712018   2.70177880
O    2.31094481   2.86296018   0.84694117
H    2.81488401   3.58222540   1.22764403
H    2.68957807   2.73896941  -0.02340072
O    0.72530818   0.50737687  -1.06665225
H    1.51186577   0.96647428  -1.36125125
H    0.32241256   0.18098022  -1.87124668
O   -1.88784442  -2.92125912  -3.46442699
H   -1.35076244  -3.65049254  -3.77425503
H   -2.65606016  -2.92945385  -4.03539921
O   -2.33605390  -2.55080393  -0.76222292
H   -3.00986629  -3.16119988  -0.46284774
H   -2.22341233  -2.75421653  -1.69075243
O   -0.67462456  -0.42676447  -3.17808600
H   -0.64293451  -0.00405514  -4.03630766
H   -1.04479493  -1.29249008  -3.35049513
O   -1.19660449   0.01309851   2.55726475
H   -2.10237238  -0.05268618   2.85973583
H   -0.67029832  -0.10734362   3.34766172
O   -0.04684223  -1.79320793   0.54937989
H    0.66688654  -2.42037325   0.66551235
H   -0.74663071  -2.29966220   0.13703053
Ca  -0.23632788   0.26017644   0.73269173
