37
Energy:  -1645.01011232
O   -0.29414530  -2.57501127  -0.20296198
H    0.53440633  -2.97015323   0.06832546
H   -0.88794162  -3.31705715  -0.31700453
O   -2.58272330   2.40946859  -0.34322270
H   -2.59344637   2.91852935   0.46731664
H   -3.22696941   2.83974879  -0.90539505
O   -0.06829641   1.48183624  -1.00438588
H   -0.83702469   2.03595088  -0.86930947
H    0.66145073   2.09711739  -1.07601039
O   -0.81573545  -0.88748427  -2.56257030
H   -0.15651599  -0.95587029  -3.25321124
H   -1.65266950  -0.95545669  -3.02208417
O    2.21290716  -1.66230588   2.89944964
H    1.88045720  -2.15161659   3.65196802
H    3.01922360  -1.25462502   3.21549073
O    1.74460251  -0.83695374  -1.27696744
H    2.00119036  -0.87899128  -2.19817717
H    2.31991945  -1.46401278  -0.83874463
O    2.34403848  -2.95499170   0.44802462
H    2.46615742  -2.65607495   1.34911706
H    2.93392933  -3.70384789   0.36156630
O   -2.15124337  -0.27582258  -0.02587844
H   -2.52117315   0.60556011  -0.07635983
H   -2.79673287  -0.77894219   0.47055463
O   -0.06590451   2.27579457   2.24232024
H   -0.86802926   2.79768085   2.26382464
H    0.52019639   2.71093817   2.86148713
O   -2.41398559   3.76737645   2.05710050
H   -3.07794473   3.64764581   2.73611058
H   -2.28236921   4.71452708   2.01450186
O    0.47937200  -0.19321720   1.29894845
H    1.04148108  -0.65815226   1.91870696
H    0.30727902   0.65037795   1.71723433
O    1.51389522  -1.00178155  -4.06018266
H    1.77850300  -0.28971395  -4.64256939
H    1.75029456  -1.79942352  -4.53358998
Ca  -0.18427861  -0.54554048  -0.61344912
