37
Energy:  -1649.19352227
O    0.89246297   1.72421736   1.17842164
H    1.27442081   2.55575749   0.89756393
H    1.22337337   1.59623510   2.06743834
O    0.77456207  -2.54592548  -1.91939843
H    1.32337013  -2.06883099  -2.54183110
H    0.84368913  -3.46119490  -2.19094066
O    0.88128261  -1.29364711   3.17691800
H    1.31491019  -0.53815784   3.57369871
H    0.99127166  -1.99693379   3.81685713
O    0.66011621   0.98693763  -1.68010049
H    0.26003931   1.64545887  -2.24800903
H    1.27574841   0.52285925  -2.24742765
O   -1.66504743   1.86574599  -0.24193249
H   -2.32478289   2.29943830   0.29926244
H   -1.69854170   2.32932300  -1.07871582
O   -3.38347245  -1.75818758   0.80067739
H   -3.48926900  -2.67122814   1.06787748
H   -4.27746178  -1.42302129   0.73227798
O    1.16812175  -1.06749699   0.39387496
H    1.37484179  -1.43055298   1.25508865
H    1.29417379  -1.79838036  -0.21123018
O    1.87211976   1.25199564   3.72280829
H    2.81685860   1.31891345   3.86145309
H    1.48682904   1.70622327   4.47211475
O   -1.24065993  -0.24081003   1.76748641
H   -0.74557578  -0.64760570   2.47857067
H   -2.05648353  -0.73983082   1.72696530
O    2.23939173  -0.60994901  -3.31063832
H    2.10431700  -0.57402212  -4.25757861
H    3.19025277  -0.63991597  -3.20482189
O   -1.09211939   2.86993252  -2.75929311
H   -0.84437610   3.78483639  -2.89273228
H   -1.65602272   2.66285607  -3.50452074
O   -1.35586564  -0.98887922  -0.98730962
H   -0.92117561  -1.67344152  -1.49588692
H   -2.15567024  -1.40247178  -0.66252409
Ca  -0.24771234   0.38787102   0.07699903
