37
Energy:  -1647.88853475
O    1.42800969  -0.47919629   3.26756013
H    1.65368723  -1.34602213   3.60507227
H    1.55932004   0.10942025   4.01087703
O   -0.69718307  -0.01454105   1.47778223
H   -1.61709903  -0.24927291   1.59979627
H   -0.28067389  -0.23515882   2.31089672
O   -1.93804755  -2.86719991  -1.45133171
H   -2.71881457  -3.02208704  -0.91968833
H   -2.01281671  -3.48972795  -2.17458842
O    0.16875840   2.42390028   0.03462292
H    0.86506302   2.96102802  -0.34337910
H   -0.41055643   3.05141926   0.46687991
O    2.04115568   0.29231046   0.66036411
H    2.88446382   0.71758821   0.50479398
H    2.07454717   0.02157339   1.57787067
O   -4.19593959  -3.04291680   0.16305810
H   -4.22774736  -3.73307769   0.82555191
H   -5.02588973  -3.12307291  -0.30703722
O    2.41659568   3.12722004  -1.41366760
H    2.65844895   3.92721494  -1.88030129
H    3.21844838   2.85957870  -0.96463284
O   -1.65573402   0.46489217  -1.18383989
H   -2.02821392   0.69922421  -2.03388640
H   -2.40133785   0.14743932  -0.67439857
O    4.33362110   1.76080432   0.09645486
H    5.06343826   1.36374164  -0.37887659
H    4.74876306   2.26274495   0.79784248
O    0.33587274  -1.63324031  -0.74009841
H    1.02910354  -2.29241044  -0.70607392
H   -0.44620878  -2.12060735  -0.99904572
O   -3.35342082  -0.47784138   0.78183568
H   -3.68277860  -1.36257525   0.62371775
H   -4.09815408  -0.00804000   1.15719005
O    1.15429666   0.79625287  -2.12159791
H    1.66078296   1.60644684  -2.17894955
H    1.27982513   0.37408886  -2.97145202
Ca   0.22072084   0.38209759  -0.32164027
