37
Energy:  -1647.91636337
O    0.80465492  -0.91508696  -1.63707618
H    1.34934097  -0.53773101  -2.32783767
H    0.52212504  -1.75940681  -1.98854836
O   -0.38533347   3.17836243   1.86759955
H   -0.08189746   4.02997105   2.18211697
H   -1.33765926   3.21497703   1.95685653
O   -3.17344292   3.01059827   1.82294474
H   -3.62759824   2.82199473   2.64416548
H   -3.60734505   3.79315026   1.48298421
O    0.80307688   0.72054564   2.16383322
H    0.42847628   1.59275181   2.28696990
H    0.97181073   0.40433621   3.05139862
O   -1.05152639  -1.00318110   0.62700757
H   -1.91405465  -0.60076814   0.52531852
H   -1.22850457  -1.94298077   0.66808249
O   -0.25560872   1.55001317  -0.37575505
H   -1.18753853   1.45178025  -0.57091901
H   -0.19917342   2.36632016   0.12092371
O    0.01049817  -3.46891759  -2.39406122
H    0.64992482  -4.05888932  -2.79318372
H   -0.78308138  -3.58639833  -2.91623133
O   -0.23320441  -3.67231658   0.38879242
H   -0.48082561  -4.50848310   0.78343294
H   -0.21645681  -3.84668592  -0.55224249
O   -2.93517127   0.94130119  -0.04592201
H   -3.15327673   1.61182431   0.60142689
H   -3.72297798   0.86169023  -0.58374590
O    2.77424817   0.60327459  -2.91184490
H    2.55164863   1.34062232  -3.48017545
H    3.53957328   0.20397772  -3.32545260
O    2.58077309   0.79054841  -0.15894586
H    3.26170068   1.26113194   0.32180419
H    2.84628856   0.85536934  -1.07629620
O    1.70077176  -1.82020019   0.98999721
H    1.19256080  -2.62785021   0.91479802
H    2.55509894  -2.10367180   1.31557481
Ca   0.77017299  -0.11903457   0.26894328
