37
Energy:  -1654.96679705
O   -2.10245231   1.57245226  -0.02447628
H   -3.04128461   1.71243129  -0.14789278
H   -1.70470507   2.41874205  -0.22898194
O   -2.21830642  -1.35703975  -0.36203035
H   -2.01483913  -1.84482499  -1.16008954
H   -3.00889171  -1.77478193  -0.02041913
O   -1.38400154  -0.20130436   2.22205463
H   -2.09982336   0.08250672   2.79063378
H   -0.73073333  -0.56291315   2.82097998
O   -0.25966122   3.52243394  -0.63961790
H   -0.25881604   4.47177109  -0.51718379
H    0.02560568   3.39692664  -1.54466075
O    0.98043062  -1.16483331   3.25053898
H    1.59035214  -0.43357064   3.34791713
H    1.17598718  -1.74052500   3.98984173
O   -0.89086986  -2.35718232  -2.55619068
H   -1.19845002  -2.73055311  -3.38215711
H   -0.21805462  -2.96681548  -2.25304233
O    0.64938471   1.36752000   0.84618061
H    1.31368185   1.39245249   1.53488920
H    0.63486758   2.25762197   0.49441423
O    1.10656195  -3.69505313  -1.13640619
H    0.90477367  -4.58594877  -0.85036723
H    1.96632611  -3.76514668  -1.55128488
O    2.43807947   1.19921835   2.96428207
H    2.37947828   1.82792976   3.68367050
H    3.37628119   1.11696088   2.79327598
O    0.54433810  -1.55485908   0.54216011
H    0.91953902  -1.70638855   1.40962477
H    0.81906714  -2.31279183   0.02612354
O   -0.17769921   0.18482784  -1.71525260
H    0.08660919   0.91485100  -2.27510892
H   -0.27614100  -0.55439715  -2.31532550
O    0.48244027   2.48587747  -3.12361906
H    1.38514640   2.63155419  -3.40669465
H   -0.04995748   2.75002042  -3.87396097
Ca  -0.77841191   0.00192564   0.25045993
