37
Energy:  -1645.13080234
O   -2.40501879   0.65666980  -0.89558590
H   -3.10532027   1.24481861  -1.17823525
H   -2.72549227  -0.21912740  -1.11124273
O    1.04534048  -4.27692596   1.04147414
H    1.36939757  -4.52525945   1.90723931
H    1.15500083  -5.06482288   0.50909749
O    1.43413833   0.70105410   0.61866652
H    1.93841790   1.42323312   0.99335497
H    2.03291625  -0.04547164   0.63857107
O   -1.51256399  -3.16796950   1.00664734
H   -2.10019128  -3.71065633   1.53240110
H   -0.67703887  -3.63476903   1.02174119
O   -1.08432894  -0.50456347   1.42102190
H   -1.25198940  -1.44317466   1.33657761
H   -1.22445471  -0.31831807   2.34941259
O   -0.90567221   2.38670626   1.04532328
H   -0.14680742   2.90752961   1.30819037
H   -1.65518231   2.84732842   1.42254165
O   -0.01166472  -0.89763715  -1.27647828
H    0.76468079  -1.42756672  -1.09566302
H   -0.66225391  -1.52489859  -1.59192817
O    0.10831353   1.99930827  -1.66487109
H    0.07509666   1.82812368  -2.60605350
H    0.58403865   2.82635760  -1.58801505
O    1.55142510   4.33853699  -1.32539973
H    2.39895558   4.40791888  -1.76484267
H    1.12890997   5.18261804  -1.48427078
O   -2.50746436  -2.07187195  -1.39168033
H   -2.38302444  -2.66140666  -0.64790928
H   -3.05759697  -2.56558342  -1.99982089
O    1.59533180   3.43819925   1.32250650
H    1.74895917   3.93432446   0.51846033
H    2.03862324   3.94296888   2.00436585
O    2.19176555  -1.99157756  -0.08149690
H    3.05305678  -2.20971146  -0.43762449
H    1.90350367  -2.79222673   0.35679279
Ca  -0.48341958   0.73860421  -0.12977383
