37
Energy:  -1645.42920159
O   -1.42313021  -1.32292042   0.11131472
H   -1.50389529  -2.26095488  -0.06131262
H   -2.25341137  -0.95163659  -0.18703635
O    1.12227072  -1.19054779   1.57549087
H    1.89957862  -0.80242256   1.97721601
H    0.87577894  -1.90132550   2.16732590
O    0.91493675  -0.65824420  -3.89708378
H    0.41528413  -1.08643946  -4.59222975
H    1.69035207  -0.31092584  -4.33791582
O    1.18499607   2.40346493   3.08749137
H    1.42592061   3.32630916   3.00658563
H    0.90892699   2.30651701   3.99887429
O   -3.12303198   0.51832706  -1.09442928
H   -3.94389887   0.45890864  -1.58318162
H   -3.27364994   1.21564526  -0.45623385
O   -0.38763938   1.26090780   1.09391575
H    0.09427865   1.69909567   1.79532736
H   -1.24389976   1.68870265   1.08746740
O    2.11355063   0.76483346  -0.32711602
H    2.71083066   0.79783476   0.42014520
H    2.51650598   1.33514747  -0.98179209
O   -0.43272428   0.63073839  -1.78961762
H   -1.37373330   0.78360511  -1.87544085
H   -0.14036296   0.42873196  -2.67840900
O    0.99626794  -1.79337758  -1.32405576
H    1.17413030  -1.66665245  -2.25600940
H    0.65714542  -2.68645554  -1.26372743
O   -0.74018668  -3.92312628  -0.72030703
H   -0.50276223  -4.63704145  -0.12854135
H   -1.23748935  -4.34668879  -1.41996174
O   -2.91780347   2.39613161   0.94241589
H   -3.01121015   3.31193683   0.68010343
H   -3.52819001   2.29212235   1.67237630
O    3.12426183   0.56858585   2.21213208
H    3.99465268   0.51079766   2.60622871
H    2.68571370   1.26563392   2.70001667
Ca   0.33373899  -0.26700385  -0.10052933
