37
Energy:  -1646.43698526
O   -0.93489958  -1.82921202  -0.84980757
H   -0.54529475  -2.40197159  -1.51040306
H   -1.31454766  -2.42804318  -0.20676759
O    0.69908667  -2.52278579  -3.06093915
H    0.29467017  -2.69242386  -3.91176350
H    1.42824144  -3.14115812  -3.01423970
O    0.57463051  -2.15292807   2.85546521
H    1.12455248  -2.93638880   2.85282913
H    0.56484413  -1.86966703   3.76974048
O   -2.17727157   2.95907004   1.65102457
H   -2.94055255   3.47335815   1.38807641
H   -1.94872256   3.29477377   2.51780032
O   -2.01295385   0.22537079   0.91621548
H   -2.31282717  -0.52548683   1.42858319
H   -2.32411711   0.98816573   1.40360972
O    2.33328736   2.35583421  -1.31643707
H    2.89275207   2.03963034  -0.60703859
H    2.86230449   3.01703316  -1.76274265
O   -2.07414826   0.61218149  -1.97835199
H   -2.94452417   0.22124365  -2.05480612
H   -2.03298382   1.24785933  -2.69281054
O    0.87221007  -0.25743207   0.83192578
H    1.74257393   0.13352875   0.90839948
H    0.83105685  -0.89313101   1.54636620
O   -0.27255601   2.18558872  -0.30188052
H    0.51817131   2.66308977  -0.55282849
H   -0.73370042   2.77946273   0.29048030
O    3.36517237   0.99010493   0.90237660
H    4.15483675   0.47666607   0.73195779
H    3.59511417   1.54339027   1.64885763
O   -1.95035674  -2.46885538   1.68168185
H   -2.57134504  -3.10290797   2.04026615
H   -1.17831427  -2.54564214   2.24229407
O    0.80549413   0.13100624  -2.06790785
H    1.04512392  -0.61067657  -2.62353005
H    1.51645480   0.76053132  -2.18817810
Ca  -0.59754884   0.17636474  -0.56995074
