30
Energy:   -381.53310652
O    1.72538728   0.04546306  -1.08189711
H    2.14590805  -0.45797034  -0.38479673
H    0.90049636  -0.41215266  -1.24429988
O    0.88414110   0.64760239   2.37225833
H    1.54011436   0.01247552   2.08495222
H    0.91594215   1.34051558   1.71264340
O    1.02842541   2.31428567   0.17235955
H    1.33449040   1.55358795  -0.32149777
H    1.69730652   2.98246922   0.02282474
O   -0.69299627  -1.23416749  -1.48242914
H   -1.40291407  -0.78471959  -1.02390418
H   -0.64572886  -0.80108659  -2.33474280
O   -1.21293724   2.16118004  -1.42906517
H   -1.78501346   1.58384675  -0.92344978
H   -0.49048409   2.36372665  -0.83470151
O    2.41778234  -1.35743401   1.19859064
H    3.09914262  -1.98148000   1.44868385
H    1.62886333  -1.89038335   1.09957724
O   -1.42855108  -0.71562628   2.32375424
H   -1.71430980  -0.84377832   3.22827116
H   -0.63766472  -0.18120843   2.39536557
O   -2.55308505   0.16451793  -0.01611442
H   -3.49577292   0.00065017   0.01069581
H   -2.24156747  -0.08330221   0.85438763
O    0.04299662  -2.57017048   0.85077123
H   -0.54595671  -2.06785353   1.41383739
H   -0.22012143  -2.33778253  -0.03973232
O   -0.27654797   0.57453768  -3.46494177
H   -0.64968578   1.23411320  -2.88016817
H    0.66804450   0.72365922  -3.42323248
