30
Energy:   -385.39024639
O   -3.25559337  -0.33608543  -0.04942764
H   -2.77674160   0.00385149  -0.80532162
H   -4.17427038  -0.15076496  -0.24416008
O    0.07563624  -1.50317801   1.87546631
H   -0.52925511  -1.97019236   1.29906723
H    0.20597357  -2.09479662   2.61656781
O    0.13939434   1.67976013  -0.30716304
H   -0.43497576   1.52183410   0.44209673
H    0.69232093   0.89983439  -0.35427866
O    1.59458904  -0.62961484  -0.25554404
H    2.42742639  -0.22628783  -0.01071528
H    1.23068524  -0.94896841   0.57017938
O    2.26602431   3.13477650   0.58785186
H    1.95411564   3.80997030   1.19039494
H    1.46825985   2.74887757   0.22607053
O   -1.61013026  -2.56056702   0.07117562
H   -2.31307694  -1.91142362   0.04451731
H   -1.14406222  -2.44374277  -0.75669184
O   -0.06233123  -1.77096303  -2.10412461
H    0.40842595  -2.21918752  -2.80677269
H    0.62644176  -1.41875670  -1.54040986
O   -1.44266563   0.81949035   1.70859877
H   -2.19005178   0.46731010   1.22526156
H   -0.92291768   0.04998340   1.94087653
O   -1.65484547   0.50819428  -2.03371069
H   -1.13762470  -0.27050891  -2.23946751
H   -1.05012573   1.07986973  -1.56070638
O    3.75430338   0.85203833   0.48010737
H    4.65051845   1.07798091   0.23114884
H    3.31137258   1.69541175   0.57373124
