30
Energy:   -381.48075875
O   -0.51715905  -0.88227768  -2.54971255
H   -0.75168139  -1.22639600  -3.41157895
H   -1.25563354  -1.11792605  -1.98814588
O    1.56161580   1.37967250   2.10105439
H    2.11736586   1.61872096   2.84282899
H    2.12548252   0.84642132   1.54076040
O   -2.44666086   1.14662610   0.27168685
H   -1.86448660   1.43498345  -0.43127475
H   -3.15277922   1.79282943   0.27875595
O   -2.44539141  -1.42616545  -0.76005218
H   -1.94712057  -1.88606739  -0.08444266
H   -2.61052129  -0.55964680  -0.38842145
O   -0.77603073   1.75176151  -1.73857340
H    0.07837697   2.03656162  -1.41436942
H   -0.60785949   0.90037306  -2.14241495
O    3.03693055   0.01027124   0.20039972
H    3.90687875  -0.34021942   0.00914525
H    2.43287360  -0.66428759  -0.10995077
O   -0.71370905  -2.37962484   1.17145286
H   -0.87615008  -3.03143240   1.85335584
H   -0.74170984  -1.54008792   1.63039246
O   -0.85570079   0.06848789   2.26451386
H   -0.03924757   0.56806596   2.25691442
H   -1.42956053   0.53730206   1.65860123
O    1.27777496  -1.82234119  -0.67121553
H    0.64717226  -2.12084858  -0.01587942
H    0.73927173  -1.52695993  -1.40537902
O    1.61516943   2.33573285  -0.56247370
H    1.40874103   2.39417454   0.37037341
H    2.22745068   1.60283555  -0.62732009
