30
Energy:   -381.26315101
O    0.32245035   1.69464249   1.82986589
H    0.24096275   0.85983054   2.29103899
H    0.27383131   2.35592398   2.52020988
O   -2.70711957  -0.84902192   1.79666960
H   -1.88701168  -0.85957321   2.29017094
H   -2.65113823  -0.06182496   1.25498807
O   -1.46162536  -1.53191100  -0.73391632
H   -2.11293198  -1.92268217  -0.15139642
H   -1.50303123  -0.59433115  -0.54560428
O    0.26250238  -0.73091219  -2.78931372
H    1.09107972  -0.88621659  -2.33591326
H   -0.38702064  -1.20722497  -2.27213114
O    0.81115514  -2.00483565   0.70564230
H    0.01911709  -1.96558667   0.16957598
H    1.50717817  -1.69006962   0.12883545
O   -1.61947445   1.10907800  -0.02002098
H   -0.98356120   1.38925185   0.63827136
H   -1.30890655   1.50146864  -0.83599219
O    2.49768592  -0.82587449  -1.14029474
H    3.42938458  -0.88594592  -1.35138924
H    2.36811988   0.08716306  -0.88376614
O   -0.23018853   1.86611455  -2.28639350
H   -0.38980277   2.34888972  -3.09737024
H   -0.07152793   0.96585714  -2.57028655
O    1.88027991   1.70956550  -0.47830673
H    1.43411104   1.76018048   0.36703539
H    1.20375734   1.92568283  -1.12005619
O   -0.12943256  -0.78112868   2.89937205
H    0.04703689  -1.32305956   3.66839826
H    0.25821976  -1.26545017   2.17040688
