30
Energy:   -391.02811397
O    0.89285033  -2.40089739  -0.66727079
H    1.55050457  -1.73627603  -0.87221276
H    0.13162092  -2.15542914  -1.19311009
O    0.56642822   0.36823363   2.72202051
H    0.78325845   0.24159115   3.64569696
H    0.31475582  -0.50208036   2.41307650
O    2.05940124   1.50790192   0.69675019
H    1.38186283   2.05873465   0.30463180
H    1.63930109   1.12092723   1.46486366
O   -1.38072863  -1.39833386  -1.90236759
H   -1.87516283  -1.22771670  -1.10070902
H   -1.98188539  -1.90008462  -2.45290239
O   -0.08236173   2.70266478  -0.59668778
H   -0.15233217   3.54730984  -1.04155935
H   -0.02214726   2.06230724  -1.30559418
O    2.52404786  -0.25396721  -1.28424375
H    3.45956867  -0.25000370  -1.48677018
H    2.43607301   0.34722134  -0.54460560
O   -2.60657620  -0.91172016   0.50427053
H   -2.30426637  -0.04331497   0.77018978
H   -3.47485585  -0.99470653   0.89852371
O   -1.58618911   1.42983260   1.33856824
H   -1.15402793   1.96040000   0.66926502
H   -0.88112288   1.17130220   1.93209625
O   -0.33310566  -1.95863727   1.72607720
H   -1.18945420  -1.72811608   1.36585643
H    0.18166508  -2.23029718   0.96617995
O    0.23635140   0.78093277  -2.45204355
H    1.08457578   0.41422502  -2.20249861
H   -0.37647116   0.05116373  -2.36194629
