30
Energy:   -389.09652274
O   -2.48449396  -0.45331333   0.03540488
H   -2.02886194  -0.98120075   0.69112294
H   -2.13714940  -0.75913758  -0.80248243
O    2.63010952  -0.98398162   0.06925845
H    2.22759837  -0.78496729   0.91460448
H    3.52065355  -1.25964838   0.28644735
O   -1.84770542   2.15390906   0.06783389
H   -2.12731284   1.23949225   0.11134759
H   -2.66330853   2.65189720   0.01277734
O    0.51284518   2.17668249   1.46517297
H   -0.34109227   2.20837281   1.03387446
H    0.57381881   3.00668342   1.93804984
O    1.27256896  -0.35215360   2.30204772
H    0.97451798   0.54074122   2.12844965
H    0.48368824  -0.88832818   2.22194854
O   -0.35618775   1.48620114  -2.18902220
H    0.53646758   1.55219565  -1.84984225
H   -0.90401470   1.85543816  -1.49635958
O   -1.09574695  -1.09395757  -2.27831639
H   -0.78504002  -0.18968540  -2.32286846
H   -1.35765956  -1.30218318  -3.17513060
O    0.47982065  -2.59188056  -0.57207230
H   -0.00199083  -2.13120175  -1.25899629
H    1.29480043  -2.09864140  -0.47850450
O   -0.86635528  -1.97820488   1.66595880
H   -0.39540061  -2.28488138   0.89111490
H   -1.11857347  -2.77881634   2.12600133
O    1.98747395   1.55700404  -0.80585733
H    2.30374111   0.67452606  -0.61236429
H    1.58592336   1.85255794   0.01123315
