30
Energy:   -380.82961486
O   -1.76704934  -0.56507675   0.76080613
H   -1.84060723  -1.28111695   0.12984850
H   -1.59115741   0.20899724   0.22591985
O    0.72898137  -0.92376784   1.73386169
H   -0.19708461  -0.87828051   1.49602865
H    0.81741670  -0.31952441   2.47095118
O   -1.02612843   1.69976172  -0.58266070
H   -1.39407243   2.12975488   0.18932048
H   -0.09040521   1.62796425  -0.39424884
O    0.87969593   1.76586832   2.77720530
H    1.26834247   1.83207888   1.90496572
H    1.38294910   2.38032251   3.31144696
O    1.98825319  -0.32530411  -2.19492635
H    1.81140976  -1.11287997  -1.68045330
H    2.70852398  -0.57382981  -2.77430257
O   -1.77759102   2.11374522   2.02638554
H   -0.90969738   2.04554041   2.42430585
H   -2.13552961   1.22748316   2.07787709
O    1.23996987  -2.38143398  -0.61667722
H    1.19977903  -2.10300343   0.29825064
H    0.32811993  -2.54363299  -0.85844777
O    1.54627351   1.11563215   0.13131482
H    1.33839495   0.31984133   0.62094257
H    1.87887427   0.80036022  -0.70904950
O   -0.73731888  -0.09408681  -2.70947919
H   -0.97528313   0.65834198  -2.16776359
H    0.21982367  -0.10179672  -2.70237009
O   -1.43648363  -2.31969407  -1.36035868
H   -2.00360214  -2.88289949  -1.88705413
H   -1.25745213  -1.56613120  -1.92278430
