30
Energy:   -381.21506113
O   -0.97094553   1.80265845  -1.32325492
H   -1.42904010   2.40413494  -1.91028750
H   -0.04247348   1.97026300  -1.48474861
O    2.21412416   2.01043069   1.17191278
H    2.92634720   2.40260659   1.67705460
H    2.38328863   1.06904762   1.20950454
O   -0.33430032  -0.94766116   1.28633614
H   -0.44666895  -1.03246645   0.33954514
H   -0.47787628  -0.01787264   1.46271953
O    1.68524061   2.08314606  -1.55419870
H    1.93723285   1.18161876  -1.75414940
H    1.96675666   2.21587966  -0.64901234
O   -0.66394630  -0.94041573  -1.39776047
H   -0.90790766  -0.01829203  -1.47777663
H   -1.49414729  -1.41382887  -1.45140908
O    2.08766647  -0.61472460  -1.65550829
H    2.30117112  -0.74900528  -0.73213604
H    1.17179122  -0.88237887  -1.73143966
O   -2.79983652  -2.09144568   1.60658176
H   -3.26520766  -1.59555690   2.28019579
H   -1.90942166  -1.74052736   1.62237888
O   -0.54618962   1.73351000   1.42252571
H   -0.82504860   1.87498580   0.51784117
H    0.37492452   1.99363816   1.43319975
O   -3.03143785  -2.25640184  -1.10682841
H   -3.40604663  -3.10758104  -1.33353101
H   -3.05589504  -2.23052233  -0.15029093
O    2.35520094  -0.74073987   1.12168499
H    2.78452519  -1.49061425   1.53351135
H    1.42053568  -0.89282971   1.26133229
