30
Energy:   -384.15174882
O   -0.16346751   1.34927110   3.65175148
H   -0.89852669   1.29290498   4.26227806
H   -0.36567882   0.70574440   2.97262276
O    1.38948377  -1.88780909   0.71502398
H    1.94584902  -2.58277564   1.06674981
H    0.90183120  -2.30661596   0.00577958
O    2.09803246   0.23833083  -0.93299393
H    2.02524894  -0.49595272  -0.32327097
H    1.75479143  -0.10113768  -1.75954011
O    0.00312335   1.77818990  -0.17080948
H    0.24611090   2.44826138   0.46809044
H    0.83540302   1.38762893  -0.43727622
O   -1.47099666   0.61690777  -2.20979016
H   -1.06638893   1.21811124  -1.58442721
H   -1.92202292  -0.02819230  -1.66513149
O    0.68556029   3.32745116   1.97039350
H    0.40279546   2.70907265   2.64410257
H    1.51712997   3.67265235   2.29529324
O   -0.10934786  -2.77276957  -1.32747810
H   -0.96751024  -2.42412559  -1.08615558
H    0.17986239  -2.21822248  -2.05209303
O   -2.30150711  -1.33168082  -0.40726803
H   -3.17014471  -1.53398743  -0.05974451
H   -1.82363478  -0.96777581   0.33801248
O    0.65825989  -0.77229656  -3.08236575
H   -0.11218128  -0.24405979  -2.87351613
H    0.76881801  -0.67209548  -4.02786482
O   -0.68073951  -0.24226450   1.48559481
H    0.06158910  -0.83505795   1.36822349
H   -0.48093585   0.50665578   0.92396436
