30
Energy:   -384.03255772
O    0.13088448  -0.63032421  -1.98270367
H    0.46839699   0.12001081  -1.49350585
H    0.12324796  -1.34682472  -1.34803796
O    1.40351015   0.89538315   2.07433736
H    1.73518843   0.05103663   1.76888632
H    2.12247651   1.26426188   2.58741406
O   -1.52023661   2.37431319  -0.33859629
H   -1.57823274   2.04032411   0.55656828
H   -1.97429781   1.71949446  -0.86894777
O   -0.02288360  -2.52428216   0.00884955
H   -0.81477827  -2.10662711   0.34752188
H   -0.23494506  -3.45740296  -0.01454615
O   -1.34311866   1.08037293   2.12187168
H   -1.62616372   1.37102690   2.98884204
H   -0.39153148   1.00502491   2.19283893
O    2.96857345  -0.31415491  -1.53451154
H    2.30103162  -0.69418443  -2.10564840
H    2.63761980   0.55969600  -1.32693956
O   -2.44477359   0.15576422  -1.72622390
H   -1.56284157  -0.13809663  -1.95442022
H   -2.93258003   0.11212638  -2.54864257
O   -2.21443878  -1.13926020   0.72320464
H   -1.98607247  -0.40463166   1.29276726
H   -2.48601936  -0.73040558  -0.09857010
O    2.30348154  -1.35061432   0.92387179
H    2.69399528  -1.08574648   0.09105975
H    1.54353879  -1.87714055   0.67590204
O    1.06120740   1.55669203  -0.58473795
H    0.22502066   2.02225795  -0.60122934
H    1.23879659   1.41518020   0.34513749
