30
Energy:   -381.32750550
O    2.31056865   1.36398884  -0.86259990
H    2.37113341   0.41474769  -0.75533857
H    3.07182318   1.59437863  -1.39518221
O    1.83332305  -1.03785621   2.37032527
H    0.87946545  -1.11735544   2.36211550
H    2.10747442  -1.51834771   3.15147877
O   -0.79161036   1.58202271   1.49531065
H   -0.78622114   1.58722249   0.53813995
H    0.10922711   1.79203598   1.74151814
O   -0.50993777  -1.49140871  -0.62477900
H   -0.76693462  -1.47107053   0.29705115
H   -1.31939930  -1.69055889  -1.09525013
O   -2.83107913  -1.66264538  -2.03291372
H   -2.87839573  -0.75067676  -2.31980433
H   -3.11177851  -2.16891295  -2.79523443
O   -0.43484304   1.16439779  -1.19933312
H    0.49443092   1.39305551  -1.21926776
H   -0.44626880   0.21950925  -1.04673251
O   -0.90897063  -1.02688975   2.07636522
H   -1.70566757  -1.21899771   2.57093612
H   -0.93929531  -0.08138506   1.93030658
O    2.24557523  -1.27917333  -0.36398255
H    1.35362378  -1.53097687  -0.60325110
H    2.25487267  -1.30889384   0.59271076
O    1.90602507   1.70116926   1.86962559
H    2.14576955   1.71519630   0.94304172
H    2.01680663   0.78742813   2.13237347
O   -2.68184593   0.96478448  -2.76098418
H   -1.86344433   1.15776108  -2.30358862
H   -3.19934937   1.76543314  -2.67505543
