30
Energy:   -383.02023935
O   -0.92953947   0.24436090  -1.62728712
H   -0.49087131   0.88420149  -2.18800639
H   -1.27110121   0.75982195  -0.89662487
O    2.42709239   1.85031337  -0.63725959
H    1.86819967   1.78608666   0.13717292
H    3.21431506   2.29888494  -0.32855931
O   -1.83452412   1.53875949   0.62543049
H   -2.06361375   0.74426744   1.10764638
H   -2.55762838   2.14154005   0.79865772
O   -2.21736038  -0.82788239   1.82091218
H   -1.35913884  -0.93283616   2.23160957
H   -2.19277215  -1.40997937   1.06144502
O    0.74735654  -2.62996506   0.48759576
H    1.23184889  -2.07930900  -0.12744645
H   -0.13517049  -2.68072731   0.12044311
O    1.64262381  -0.74452800  -1.26014254
H    0.74711507  -0.45541288  -1.43538064
H    2.11393907   0.05748559  -1.03460327
O    0.79335191   1.51995101   1.48122953
H   -0.11497701   1.67420035   1.22165762
H    0.77345365   0.67749342   1.93521313
O    0.43393210  -1.00325344   2.59507319
H    0.80773505  -1.42398916   3.36933713
H    0.61818359  -1.61121289   1.87906443
O   -1.78516902  -2.16243422  -0.58248172
H   -2.31163970  -2.67215159  -1.19831341
H   -1.53935895  -1.37636134  -1.07023031
O    0.73812229   2.03109833  -2.83679261
H    1.29130520   1.80983330  -3.58596703
H    1.34561571   2.09199047  -2.09958453
