30
Energy:   -383.02353309
O   -0.07445941  -3.11655652   1.35081903
H    0.62438635  -2.62320683   0.92133965
H    0.27769444  -4.00198094   1.44161062
O   -0.07953283  -1.24832657  -2.21105642
H   -0.14523861  -1.74800319  -3.02483641
H   -0.81719151  -1.55261220  -1.68237714
O   -1.93158564  -2.13154526  -0.48961704
H   -2.22892151  -1.31178069  -0.09489020
H   -1.44829787  -2.57282311   0.20890901
O    0.42552366   1.47351866  -2.11385549
H    0.20364042   0.55205595  -2.24766933
H    1.24493351   1.45371121  -1.61948010
O   -0.01931097  -0.21346696   2.14006882
H   -0.24300876  -1.00763353   2.62534256
H    0.50870211  -0.52271580   1.40399872
O   -2.29143096   0.29997224   0.69609873
H   -1.56701526   0.16435261   1.30688597
H   -2.10439718   1.14422725   0.28563107
O    1.48064208  -1.21062745   0.04736119
H    1.00776921  -1.27111421  -0.78267764
H    2.03512703  -0.43625979  -0.04820558
O    0.77235701   2.37369751   1.44969159
H    0.48331229   1.59898859   1.93188563
H    0.01889757   2.61635229   0.91150076
O    2.52921540   1.32621756  -0.29443923
H    3.35719884   1.80596490  -0.27168474
H    1.98155288   1.76160373   0.35881149
O   -1.28675852   2.64384404  -0.39598331
H   -0.73089076   2.26605581  -1.07753958
H   -1.72334809   3.38066554  -0.82343561
