30
Energy:   -383.37222822
O   -0.63989680  -0.43764591  -2.55700154
H   -1.31333997   0.12247070  -2.17102806
H   -0.69686306  -1.25606845  -2.06387758
O    1.02439388   1.64193368   1.89317959
H    1.21397030   2.14839487   2.68298317
H    0.45680761   0.93217000   2.19370111
O   -2.25417103   1.26890485  -1.07476718
H   -1.48739518   1.79667632  -0.85173372
H   -2.89879561   1.90294734  -1.38890268
O   -0.86088056  -2.49781938  -0.78580144
H   -0.11739799  -2.50435027  -0.18295580
H   -1.55946198  -2.05879513  -0.30054527
O    0.04017844   2.56726738  -0.52284160
H    0.37201688   2.35319086   0.34910240
H    0.65108167   2.14047456  -1.12357198
O    2.52452643  -0.05738615   0.28895809
H    2.31981329   0.24861730  -0.59460644
H    2.16125612   0.61454773   0.86582150
O   -0.44881775  -0.58401639   2.53653997
H   -0.79359902  -1.04371812   3.30206727
H    0.10074232  -1.23159085   2.09510720
O   -2.48782958  -0.85857902   0.67948160
H   -1.83782160  -0.64673439   1.34943931
H   -2.50231108  -0.09090389   0.10790743
O    1.17767259  -2.24222555   1.08146694
H    1.71680406  -1.52409437   0.75002056
H    1.78206461  -2.98052389   1.15800256
O    1.61768480   0.93910885  -2.11632212
H    2.05229176   1.07946177  -2.95754129
H    0.85499351   0.40051138  -2.32714580
