30
Energy:   -382.73385004
O   -2.84181431  -0.05647217   0.59447167
H   -2.34251234  -0.86967490   0.51943353
H   -2.70705150   0.38607915  -0.24351351
O    1.97931152   1.46368154  -0.78475753
H    2.57911019   2.14939031  -1.07848683
H    1.23154331   1.93828660  -0.42168096
O   -1.32509178   1.38822675   2.29179547
H   -1.83862286   1.69685548   3.03829797
H   -1.94580772   0.88443613   1.76535593
O    0.46005343  -0.74375046   2.29513513
H   -0.05969791   0.04691817   2.43981928
H   -0.03673981  -1.24211364   1.64624186
O   -0.31189413   2.61256152   0.03310850
H   -0.62021711   2.30928158   0.88703477
H   -0.95309715   2.26944999  -0.58927805
O    1.79990395  -2.67898448  -1.15276018
H    2.52022534  -3.26957369  -1.37315373
H    2.16078967  -2.10060770  -0.48084229
O   -0.81938059  -1.92733463   0.17376224
H   -0.45467860  -1.35948915  -0.50504245
H   -0.38024805  -2.76803178   0.04483294
O   -1.90482467   1.14790009  -1.72983227
H   -1.18015428   0.55522049  -1.92937066
H   -2.30845029   1.32783671  -2.57891472
O    2.63068308  -0.83087687   0.63950421
H    2.54698754   0.02300356   0.21510451
H    1.99788397  -0.80519812   1.35723517
O    0.33058579  -0.45551177  -1.86875693
H    0.84729297  -1.26055066  -1.90278513
H    0.94725986   0.21303293  -1.57044011
