30
Energy:   -384.18437183
O   -2.91187030   1.08732028   2.29799187
H   -2.24435373   0.81361924   2.92707153
H   -3.49553007   1.65637604   2.79973749
O   -0.81496239   0.33247397   3.87699388
H   -0.19519125   0.20870520   3.15810802
H   -0.54506887  -0.30420117   4.53883534
O   -1.40725198   0.98562941   0.03311493
H   -1.66787722   0.19193213  -0.43416546
H   -2.04300124   1.06513295   0.74426464
O    0.37703039  -0.24893636  -2.99542010
H    1.16981966  -0.69201219  -2.69309440
H    0.46028700   0.64499227  -2.66346861
O    2.44951261  -1.47531060  -1.62492532
H    1.81731515  -1.87363170  -1.02667912
H    3.10426866  -2.15797845  -1.77152326
O    0.51785628  -2.32735727   0.04093903
H    0.56391429  -1.64286489   0.70845733
H   -0.29253036  -2.14468348  -0.43459816
O    2.54544218   0.85228418  -0.11325043
H    2.68419913   0.07690750  -0.65709724
H    1.97067594   1.41193933  -0.63542065
O    0.51822960   2.11697073  -1.54944083
H   -0.20686028   1.84987271  -0.98452034
H    0.36011489   3.04548413  -1.72001180
O    0.59826145  -0.04568925   1.56196954
H   -0.11802165   0.34014214   1.05768340
H    1.39236990   0.29524499   1.15040246
O   -1.57758628  -1.31591251  -1.48288311
H   -0.93934182  -0.96969320  -2.10658821
H   -2.23075298  -1.75571781  -2.02710402
