30
Energy:   -381.70752616
O    0.01095074  -1.97579968  -1.79097318
H   -0.61258366  -1.38032914  -2.20672734
H   -0.43615942  -2.27770363  -1.00029097
O    1.53788847   2.24672854   2.34297916
H    2.07877631   1.52175231   2.02979926
H    1.64467180   2.23238717   3.29409613
O   -1.80918459  -0.01227039  -2.58494366
H   -2.23245248  -0.05181318  -1.72732340
H   -2.51929907  -0.15816359  -3.20999121
O   -2.72662046  -0.14557728  -0.06868169
H   -2.38874896  -0.99458126   0.21639187
H   -2.21391018   0.49469356   0.42468762
O    1.93728664  -0.13944973  -1.14454765
H    1.39251359  -0.88739258  -1.38956941
H    1.41260389   0.62633088  -1.37804264
O    2.80295295  -0.03687555   1.39761514
H    3.68555826  -0.40685042   1.41654377
H    2.54992456  -0.06680529   0.47494906
O   -1.35165519  -2.46309615   0.57404231
H   -0.75324320  -1.98043849   1.14428482
H   -1.57964533  -3.24692994   1.07389923
O   -0.69644570   1.51209595   0.95340127
H   -0.42954937   1.68249609   0.05009513
H   -0.02269385   1.93422584   1.48640844
O    0.22469349  -0.85279447   2.02789476
H   -0.15275127  -0.02807699   1.72193990
H    1.16802112  -0.74448127   1.90692749
O    0.03808358   1.80544284  -1.69055938
H    0.05554729   2.59416741  -2.23262988
H   -0.59702869   1.23274361  -2.12053595
