30
Energy:   -383.45582363
O   -0.11446187   1.88033667  -1.47136120
H   -0.08901601   2.64646997  -2.04461868
H   -0.11925672   1.13307646  -2.06953427
O    0.44664545  -0.98852541   1.89801511
H    0.96643936  -0.41427800   1.33562196
H   -0.21447821  -0.41318707   2.28289578
O    0.04355593  -2.80428774  -0.09046368
H    0.13381832  -2.31268140   0.72587434
H   -0.76599467  -2.47483692  -0.48074797
O    1.98386162  -1.55379439  -1.45418141
H    1.34523972  -2.07767274  -0.97050239
H    2.65152362  -2.18245707  -1.72848513
O   -0.09165018  -0.39517383  -2.88647256
H   -0.82742940  -0.85193349  -2.47875770
H    0.68501596  -0.83717382  -2.54346008
O   -2.16717525   0.85043199   0.06678315
H   -1.90521208   0.96817701   0.97987857
H   -1.52049117   1.34727365  -0.43439536
O   -1.16517481   1.15999211   2.63398601
H   -1.60023189   1.48405388   3.42261847
H   -0.34415123   1.65046144   2.59408657
O   -2.07543026  -1.48877106  -1.28714494
H   -2.17156794  -0.69723678  -0.75755749
H   -2.97303847  -1.77606472  -1.45445809
O    1.76357941   0.70806243   0.14870997
H    2.04608177  -0.02738227  -0.39493086
H    1.14788880   1.19126018  -0.40235886
O    1.30023542   2.29474826   2.36999358
H    1.60020342   1.81657425   1.59694722
H    2.07217997   2.34855070   2.93341062
