30
Energy:   -383.10483891
O    0.07709564  -0.78702158  -2.60497287
H    0.43338371  -1.50907495  -2.08735371
H   -0.82640063  -0.69738776  -2.30183573
O    1.23301503   0.98315883   2.18581963
H    1.80651231   1.16921193   2.92926899
H    1.77050403   0.45685197   1.59392563
O   -2.35254978   1.58945951   0.39050311
H   -1.49784691   1.99519278   0.24526068
H   -2.97062311   2.32022381   0.37633436
O   -2.30818489  -0.61556024  -1.28797995
H   -2.07268895  -1.28737309  -0.64810418
H   -2.41532614   0.18219937  -0.76997202
O    0.16018637   2.52861559   0.14821653
H    0.56241621   2.13337847   0.92167023
H    0.64692580   2.16129342  -0.58961204
O    2.61706910  -0.35799359   0.23849296
H    3.50793921  -0.63903046   0.02968546
H    2.36286571   0.19980578  -0.49667529
O   -1.33756472  -2.30323723   0.69188168
H   -1.84955960  -2.98866590   1.12116089
H   -1.31679574  -1.58648489   1.32596888
O   -1.30218617  -0.13546537   2.28421362
H   -0.42358396   0.23686181   2.35946308
H   -1.78158317   0.48888999   1.73961216
O    1.05829691  -2.46404047  -0.68175210
H    0.25239233  -2.50550639  -0.16694123
H    1.59043019  -1.80124643  -0.24155887
O    1.64173131   1.21049797  -1.78457360
H    1.05492739   0.53887657  -2.13216202
H    1.95938181   1.67555840  -2.55855603
