30
Energy:   -380.46469593
O    2.85184285  -0.35500337  -0.92097149
H    2.46846493   0.43602206  -1.29982765
H    2.29991896  -1.06741549  -1.24358711
O    0.49642851   2.16494332   0.77322038
H   -0.40287399   2.07319850   1.08797384
H    0.94995405   1.39419467   1.11453101
O   -2.02797681   1.41015139   1.62999374
H   -2.26385298   0.92313682   0.84042988
H   -2.80079823   1.94026338   1.82482745
O   -2.46115242  -0.14833438  -0.59655000
H   -1.82920694  -0.00987590  -1.30203281
H   -3.24605554  -0.47312320  -1.03776555
O    1.36837370   1.84344760  -1.75747439
H    1.72953817   2.66895939  -2.08046412
H    1.04568593   2.04959568  -0.88020168
O    1.52208055  -0.25726639   1.45644803
H    2.18162273  -0.30097099   0.76411439
H    0.81062375  -0.81725046   1.14583748
O   -0.65886592  -1.80698365   0.67398765
H   -1.34106556  -1.30342066   0.22984823
H   -0.82828528  -1.67053118   1.60614088
O   -0.84388404  -0.63450987   3.13008682
H    0.08201544  -0.39173052   3.12964099
H   -1.29255742   0.12976208   2.76840681
O    0.89460909  -2.22970570  -1.56507558
H    1.05204391  -3.15070979  -1.77291591
H    0.38748542  -2.25011766  -0.75350871
O   -0.53875900  -0.01940981  -2.46705695
H    0.09253543   0.68984922  -2.34601632
H   -0.02699860  -0.81932481  -2.34676926
