30
Energy:   -381.75472999
O   -1.42711220  -1.15421855  -1.64916045
H   -1.76651824  -1.52106944  -2.46552790
H   -1.62918969  -0.22017108  -1.70349146
O   -1.33292275   2.01023674   0.94808495
H   -0.45569887   2.39270954   0.92747756
H   -1.56483978   1.89191641   0.02697332
O    1.27249487  -0.98278475  -1.10873768
H    0.34772543  -1.06554411  -1.34151272
H    1.52252785  -1.85539084  -0.80497137
O   -0.97489488  -0.26668266   2.36105939
H   -1.37336355  -0.14744984   3.22317197
H   -1.19895451   0.53042452   1.88079980
O    1.40165734  -3.39806098   0.15047900
H    1.83431285  -3.68048006   0.95625845
H    0.49996828  -3.21429710   0.41395484
O    1.60737147   0.06384076   1.42382534
H    1.54784269  -0.36302612   0.56914831
H    0.77967154  -0.14735286   1.85573035
O    1.36723168   2.63776089   0.72469308
H    1.54662667   1.75076695   1.03660818
H    2.03541669   3.17951942   1.14452439
O   -1.61384620   1.57780326  -1.77718052
H   -0.66839532   1.67641781  -1.88956225
H   -1.99383539   2.25850938  -2.33258960
O   -1.11095401  -2.51564548   0.76109940
H   -1.36972794  -2.11621788  -0.06939774
H   -1.12676819  -1.79396702   1.38971848
O    1.06559715   1.70558327  -1.86099843
H    1.28419432   2.14125735  -1.03720524
H    1.35534318   0.80153572  -1.73861739
