30
Energy:   -381.21530965
O    0.83772772   0.76835033  -1.56632000
H    1.26897849   1.40567579  -0.99704777
H   -0.07093672   0.75426239  -1.26571673
O    1.85223105   2.28402978   0.53262608
H    2.04433443   1.45123718   0.96365349
H    2.65736595   2.79339931   0.62499672
O   -1.75437299   0.74658326  -0.63548157
H   -1.59187000   1.44450466  -0.00087118
H   -1.95977482  -0.02058338  -0.10116212
O   -1.29066670  -0.76846867  -2.97132622
H   -0.48250793  -0.30029116  -3.18089975
H   -1.74586559  -0.19667681  -2.35320011
O   -0.77321328   2.42160286   1.34430978
H   -0.96883432   3.24921051   1.78366138
H    0.14531241   2.49822323   1.08610108
O    1.83384215  -1.59711562  -0.72265171
H    2.56266448  -1.85348092  -1.28774169
H    1.52431545  -0.76953405  -1.09080088
O   -2.03776822  -1.52028306   0.88831080
H   -2.76787394  -2.08350783   1.14512853
H   -1.55633039  -2.03268369   0.23877631
O   -0.37265922  -0.05999292   2.55828311
H   -0.61633486   0.81657005   2.26080807
H   -0.95820539  -0.64711174   2.08010006
O    2.18388721  -0.14252858   1.61298673
H    1.34966210  -0.22293232   2.07541029
H    2.13357576  -0.79281036   0.91239111
O   -0.66925712  -2.69054729  -1.09891846
H    0.24673005  -2.46107545  -0.94225951
H   -0.92026792  -2.16912126  -1.86137522
