30
Energy:   -380.48536778
O   -0.43959699  -1.69730330  -2.87105953
H    0.10166539  -2.15801113  -2.22995487
H   -1.15190930  -1.31860983  -2.35585638
O    1.90476253   1.36289868   1.61216534
H    2.75672749   1.58084765   1.99016770
H    2.10384127   0.73458031   0.91803601
O   -2.04334197   1.92082507   0.95011146
H   -1.27040488   2.37035148   0.60845944
H   -2.67335146   2.62140393   1.11895798
O   -1.76001432  -0.26330937  -0.73323099
H   -1.53834127  -0.93496894  -0.08827647
H   -2.05562568   0.48250210  -0.21110933
O    0.26429680   2.90344442  -0.01373546
H    0.91279138   2.51154842   0.57116124
H    0.38777720   2.44965589  -0.84743829
O    2.22984502  -0.30652915  -0.46950022
H    1.94331992  -1.21774262  -0.53134857
H    1.67109652   0.16328672  -1.08861654
O   -0.92356364  -2.07071867   1.18178993
H   -1.55904159  -2.55528407   1.70866373
H   -0.69292231  -1.31367269   1.72023009
O   -0.46117623   0.23136563   2.49121830
H    0.39920682   0.61633471   2.32456999
H   -1.08059588   0.85486366   2.11200682
O    0.96850662  -2.75862245  -0.68571975
H    0.33153170  -2.61161283   0.01348192
H    1.25718083  -3.66271906  -0.56118719
O    0.34961689   0.94065540  -2.00684615
H   -0.39837969   0.57701545  -1.53303294
H    0.41731662   0.40407088  -2.79660918
