30
Energy:   -382.92720764
O    0.83962970  -2.10685458   1.53028546
H    1.19731525  -2.96240653   1.76761172
H    1.47519305  -1.74373721   0.91348983
O    0.42533911   0.15955090  -1.76437680
H    0.43278771   1.03447731  -1.37620140
H   -0.18060497   0.22944112  -2.50206167
O    0.85462099   0.28481557   2.94433379
H    0.84393177  -0.61504541   2.61819303
H    0.03150508   0.66229705   2.63414066
O    2.62239790   1.48430988   1.30480805
H    3.30266289   1.94112392   1.79957297
H    2.05644381   1.09945317   1.97399645
O    0.45776009   2.37144164  -0.19438166
H    1.27677470   2.22246338   0.27811426
H   -0.22690602   2.14044378   0.43339549
O   -3.13649365  -1.43980097  -1.90141558
H   -3.32282187  -2.37553748  -1.97829746
H   -2.54708707  -1.37340109  -1.15013482
O   -1.36198855   1.20169134   1.55395944
H   -2.27232038   1.43615318   1.73439074
H   -1.41946294   0.40697357   1.02353301
O   -1.65350101   0.16672794  -3.54149320
H   -2.23235813   0.76101412  -4.01896594
H   -2.24611741  -0.40413887  -3.05246482
O    2.47527295  -0.85176617  -0.19099099
H    1.90908880  -0.57591158  -0.91180415
H    2.70706415  -0.03823325   0.25696981
O   -1.21199191  -1.03579931   0.02080033
H   -0.64019810  -0.64825462  -0.64184044
H   -0.62578592  -1.55944188   0.56705379
