30
Energy:   -384.14928357
O    0.22005498  -0.39240188  -1.93553422
H    0.68180470  -1.05356951  -1.41990218
H   -0.69826331  -0.66039391  -1.90231325
O    0.97546629   1.47608452   1.79929370
H    1.40936964   2.05847336   2.42281834
H    1.68690696   0.96573695   1.41247415
O   -2.67303579   1.29980495   0.11460101
H   -1.84905456   1.67021672  -0.20175623
H   -3.31970229   1.98919241  -0.03639309
O   -2.29947330  -1.11787973  -1.20795858
H   -1.99117210  -1.66417079  -0.48494523
H   -2.59854170  -0.31109593  -0.78856636
O   -0.17860831   2.00611485  -0.64057208
H    0.24634073   1.89903345   0.21041778
H   -0.02004617   1.17810451  -1.09388076
O    2.83915263   0.09355400   0.46683659
H    2.46193841  -0.76408820   0.27090002
H    2.86469002   0.54313868  -0.37782506
O   -1.08576695  -2.38952496   0.96216630
H   -1.55049060  -3.03754552   1.49163124
H   -1.15564033  -1.57633887   1.46224423
O   -1.33241299  -0.00525451   2.16473817
H   -0.51845634   0.49838877   2.17179887
H   -1.91731774   0.49193949   1.59297213
O    1.38955949  -2.18156100  -0.21304131
H    0.57087009  -2.33121303   0.25980515
H    1.70197474  -3.05856681  -0.43550339
O    2.39014085   1.40114871  -1.91093425
H    1.79893949   0.74532630  -2.28054183
H    1.81694642   2.12354897  -1.65438433
