30
Energy:   -381.96173668
O    1.10595566  -2.09425253  -0.83645347
H    1.16882276  -1.40266940  -1.49523443
H    1.53359487  -1.72793859  -0.06239233
O    2.17079711   1.41365478  -0.29779467
H    2.28389117   0.68803119   0.31613692
H    1.97546390   0.99183687  -1.13454221
O    0.30689643  -0.40495805   3.14386779
H   -0.35200682   0.09967994   2.66698327
H   -0.09455877  -0.58002789   3.99499418
O    1.17830154   0.09714500  -2.52097373
H    0.31468889   0.48851491  -2.38969302
H    1.32778949   0.15657343  -3.46455916
O   -1.48750866  -2.77095590  -0.50122957
H   -1.50541705  -3.72398714  -0.41380772
H   -0.56196644  -2.55831327  -0.62117351
O    2.27004223  -0.81673411   1.32499227
H    1.58740855  -0.69472248   1.98480760
H    3.03359117  -1.11151778   1.82130615
O   -1.50688275   1.01576057   1.73385742
H   -1.05673293   1.70421052   1.24433352
H   -1.98276398   0.51964470   1.06779590
O   -0.10897942   2.77939260   0.12745657
H    0.10712673   3.70342424   0.25273828
H    0.73883124   2.34551449   0.03154670
O   -1.16824928   1.28325702  -1.94625965
H   -1.76645631   0.70389022  -1.47433349
H   -0.89095039   1.92556754  -1.29297994
O   -2.70679752  -0.35818338  -0.34736259
H   -2.30066424  -1.22398562  -0.38827814
H   -3.64252262  -0.52655353  -0.45827639
