30
Energy:   -381.82807556
O    2.31762429  -0.30843142  -0.23310666
H    2.41522157   0.11107653   0.62171477
H    1.92834862   0.36680153  -0.78876552
O   -0.20576146  -0.58538191   2.71135456
H   -0.11438183  -1.09229300   1.90455672
H   -0.35500215  -1.24195454   3.39170113
O    0.81515707   1.70624887  -1.43940627
H    1.07172689   2.30965694  -2.13676018
H    0.74954771   2.25591837  -0.65851530
O   -1.65166745   1.46399805   1.51993918
H   -1.81888249   1.04734191   0.67455841
H   -1.28565392   0.76608541   2.06324746
O   -1.99433435  -1.55616010  -2.95410090
H   -2.74977228  -2.02815161  -3.30448554
H   -1.39019748  -2.24396563  -2.67450469
O   -0.26138855  -3.36784539  -1.88178500
H    0.60075134  -3.70727557  -2.12206362
H   -0.11563931  -2.90491050  -1.05675148
O    0.47777157   2.99602109   0.96454749
H   -0.32879428   2.53447316   1.19401838
H    0.37732099   3.86380200   1.35582466
O    2.01101503   0.99647138   2.14739488
H    1.57492805   1.78320091   1.82010811
H    1.30323472   0.46182320   2.50715896
O    0.07360570  -1.70498109   0.26087497
H   -0.53936711  -1.09062051  -0.14292853
H    0.93753956  -1.33165437   0.08629752
O   -1.44866842   0.19401768  -0.94148617
H   -0.72294219   0.71811486  -1.28041895
H   -1.74415897  -0.32075667  -1.69243527
