30
Energy:   -385.16224409
O    0.76222704  -1.95372556  -0.08298838
H    0.13180833  -1.52014358   0.49217313
H    1.35134262  -1.25372273  -0.36436131
O    1.50153020  -1.54288839   2.61651389
H    0.56195683  -1.40034986   2.73104122
H    1.57179554  -2.03321592   1.79744520
O    0.28216830   0.96524198  -2.62260695
H   -0.33908383   1.35665117  -2.00854141
H    0.19199643   1.48663239  -3.42026158
O    2.09562090   0.97764825   1.69495191
H    2.28984584   0.76964913   0.78103458
H    2.03278020   0.12573419   2.12683769
O   -1.06112169  -0.71868609   1.57343382
H   -1.81540819  -0.74982935   0.98494947
H   -0.89983500   0.21523525   1.70763285
O   -2.85982717  -0.55573958  -0.52358394
H   -2.26677099  -0.95645788  -1.15914752
H   -3.72059860  -0.91478042  -0.73897674
O    2.29504092   0.15735281  -0.94698038
H    1.66112431   0.51511293  -1.56858257
H    3.09748717   0.04987544  -1.45762750
O   -0.95367479  -1.49577163  -2.17386583
H   -0.51896341  -0.70722481  -2.49859922
H   -0.33961504  -1.86399205  -1.53858936
O   -1.50364652   1.85546628  -0.82680487
H   -1.14490666   2.01562474   0.04605641
H   -2.11656648   1.13039206  -0.70503313
O   -0.40391979   1.94766763   1.71436896
H    0.52223083   1.70594524   1.72123666
H   -0.48932774   2.59075579   2.41819774
