30
Energy:   -389.44340590
O   -1.35105850  -1.33622261  -1.65782335
H   -0.43861275  -1.35719123  -1.94632798
H   -1.60029521  -0.41392922  -1.71688115
O    1.23951832   2.15073617   0.55144474
H    1.57901327   1.47428529   1.13743895
H    0.30730500   2.20477861   0.76189566
O   -1.51237511   1.99600720   0.91108073
H   -2.07802613   2.74380401   1.10361828
H   -1.68779218   1.79268356  -0.00767941
O   -0.86206114  -0.15158236   2.53642984
H   -1.06529999  -0.92512037   2.01053560
H   -1.19782534   0.58292014   2.02262023
O   -1.73476503   1.40046392  -1.75753664
H   -2.16141544   1.76609321  -2.53246664
H   -0.79837619   1.49573001  -1.93169799
O    1.38548054  -1.21897723  -2.08251722
H    2.01376360  -1.71123710  -2.61088495
H    1.55126605  -1.50493608  -1.18419960
O   -1.13536443  -2.31493955   0.84052130
H   -1.29508719  -1.98489112  -0.04366675
H   -1.66776240  -3.10815949   0.90040770
O    1.80422732   0.05413788   2.26814772
H    2.22795272   0.10122060   3.12516105
H    0.87054205  -0.01938620   2.46577840
O    1.60103480  -2.03382918   0.47363511
H    1.81805250  -1.34215371   1.09871126
H    0.69463939  -2.26503830   0.67666600
O    0.91546599   1.50622534  -2.07914644
H    1.18352101   1.79547864  -1.20695903
H    1.20315686   0.59462327  -2.12861841
