30
Energy:   -381.39288668
O   -1.12868097  -2.01837571  -2.21380505
H   -1.32684516  -2.70961288  -2.84559138
H   -0.75947579  -2.48001154  -1.46093604
O   -0.01648613  -3.08251744  -0.02290064
H   -0.50282849  -2.59475446   0.64177239
H    0.87206132  -2.72946101   0.02255727
O   -1.29212087  -1.24547445   1.53448032
H   -0.51981471  -0.69087609   1.64491445
H   -1.80956879  -0.80488212   0.86041956
O    2.32679523  -1.58247018  -0.11022799
H    2.01273020  -1.17890327  -0.91938111
H    3.24274993  -1.79589540  -0.28829681
O    1.16105731  -0.43617956  -2.25284553
H    0.80891312   0.38268603  -1.90401111
H    0.38978288  -0.97956459  -2.41440144
O   -0.27707278   3.83260224   0.65528663
H    0.10845402   3.50191995   1.46661281
H    0.07916292   4.71624051   0.56302949
O    0.96257827   0.31946276   1.37435259
H    0.61836918   0.77214771   0.60439916
H    1.56692172  -0.33239749   1.01927646
O    0.90396358   2.65427400   2.81523449
H    1.04275359   1.80036052   2.40559935
H    0.62204624   2.44976008   3.70682213
O   -2.38979950  -0.06820784  -0.74136009
H   -3.31364552   0.01477904  -0.97769367
H   -2.05273476  -0.74747675  -1.32549445
O   -0.13569736   1.53169105  -0.79217942
H   -1.01484264   1.15339235  -0.77716171
H   -0.24127016   2.39972695  -0.40282108
