30
Energy:   -381.46117782
O   -0.95808616  -1.18615990   2.03007954
H   -1.00330959  -0.25026910   2.22577089
H   -0.02115748  -1.37835607   1.99190713
O   -0.88940460   2.74741550  -2.08544471
H   -1.45652060   2.36783300  -1.41423058
H   -1.48554675   3.22876517  -2.65915970
O   -2.36483297   1.53667086  -0.18272594
H   -1.93084653   1.64485000   0.66355114
H   -2.34250560   0.59360200  -0.34506657
O    1.77717443  -1.49297708   1.72817616
H    2.39371585  -1.86633316   2.35802834
H    1.88896952  -2.02367666   0.93944828
O    1.28610421   1.18662009  -1.69709065
H    1.98318486   1.52567801  -2.25865111
H    0.54072073   1.76313968  -1.86519919
O    1.55833768   1.18167645   1.04852082
H    1.51865571   1.20314162   0.09238462
H    1.74525663   0.26714719   1.26048636
O    0.28613234  -1.37190066  -1.94589552
H    0.62444248  -0.47671173  -1.92552727
H   -0.55813140  -1.31964142  -1.49787815
O    1.99755715  -2.92089924  -0.56081156
H    2.19319089  -3.69426839  -1.08982899
H    1.40103939  -2.40421787  -1.10251145
O   -2.02195839  -1.18959476  -0.44032911
H   -2.75034936  -1.81048284  -0.45361145
H   -1.66139616  -1.26151284   0.44344378
O   -0.86459179   1.58163739   2.13956953
H   -0.79384438   2.24969519   2.82142393
H    0.01369995   1.52954632   1.76257882
