30
Energy:   -382.22271933
O   -2.60978394  -0.79117041  -0.72564286
H   -3.23604364  -1.34108895  -1.19640844
H   -1.77441034  -1.25031694  -0.81263281
O    3.31507751   0.14110146  -0.82568782
H    2.60326224   0.47038931  -1.37443218
H    3.16679111   0.54658916   0.02860880
O   -1.78382025   1.79531741  -1.34125185
H   -2.21950017   0.95446906  -1.20200778
H   -1.68219149   2.16134882  -0.46265954
O   -0.03399477  -1.78156903  -0.68155764
H    0.07270850  -1.66018034   0.26189932
H    0.78810306  -2.18041764  -0.96670110
O   -1.16824729   2.46811943   1.28650435
H   -1.10970273   3.34011311   1.67692898
H   -0.26393170   2.15540053   1.26096904
O    0.17028946  -1.08939363   1.96780099
H    0.30776590  -1.62785622   2.74715337
H   -0.71972985  -0.75055257   2.06415557
O    1.25193428   1.26439997   1.01408605
H    1.00548829   0.43728132   1.42805581
H    1.08206437   1.12636273   0.08224820
O    2.54988751  -2.43721891  -1.27661509
H    3.20924560  -2.87750029  -1.81292755
H    2.93055939  -1.58042991  -1.08365557
O   -2.27516670   0.00352531   1.91845855
H   -2.57589134  -0.27942698   1.05489933
H   -2.04491349   0.92532310   1.80225129
O    0.69183933   0.70871190  -1.58932443
H   -0.13051044   1.18841257  -1.68862189
H    0.42383870  -0.19363627  -1.41561411
