9
Energy:    -60.62709721
O   -0.81652353   0.35419245  -1.54450091
H   -1.67106177   0.66198675  -1.24241002
H   -0.63399396  -0.41502376  -1.00485174
O   -0.11352353  -1.52759681   0.94699001
H   -0.50137015  -1.59881140   1.81919144
H    0.34712562  -0.68858857   0.95695914
O    0.98367189   0.99572978   0.40725740
H    0.50686953   1.03115055  -0.42198125
H    1.86952344   1.28398224   0.18723602
