9
Energy:    -62.84560604
O   -0.74116202  -0.42945646  -1.44505524
H   -0.37195600   0.40307006  -1.15040570
H   -1.28969133  -0.19696541  -2.19425171
O    0.72803156   1.55553814   0.33536043
H    0.56849751   0.67140135   0.66563739
H    0.78333417   2.09900160   1.12137630
O    0.13014181  -1.10180283   1.15884616
H    0.52612566  -1.97236020   1.11936826
H   -0.39721673  -1.04168402   0.36228446
