9
Energy:    -62.35667006
O   -0.57889859   1.17938125   0.97497823
H   -0.45400296   1.01267278   1.90923794
H    0.28135204   1.02169539   0.58595913
O   -1.09840423  -1.09164693  -0.70368508
H   -1.18806499  -1.88302879  -0.17273541
H   -1.17747727  -0.37217540  -0.07731458
O    1.42636499   0.22552535  -0.49034556
H    0.73596268  -0.32224138  -0.86388017
H    2.19019578   0.05875872  -1.04259845
