9
Energy:    -60.84403644
O    1.83689265   0.11501893   0.20744641
H    2.46277667   0.07253243   0.93042355
H    0.97949292   0.05146892   0.62823014
O   -0.70519084   0.02398057   1.20186590
H   -1.04231990  -0.05696825   0.30966462
H   -1.37521413  -0.38500150   1.74961976
O   -0.94438063  -0.16327331  -1.42034408
H   -0.00058751  -0.01366191  -1.47604697
H   -1.31375809   0.36915911  -2.12483529
