9
Energy:    -63.81396415
O    1.30650043  -0.62401447  -0.72449200
H    0.75903328  -0.04063556  -1.25002090
H    2.19395799  -0.28183884  -0.83204091
O   -0.43205767  -0.67650009   1.36464913
H   -1.00766454  -1.43080232   1.23840844
H    0.32269980  -0.85397107   0.80333187
O   -0.88368787   1.25478714  -0.56459344
H   -1.35667902   2.02701774  -0.25447877
H   -0.89705402   0.65092744   0.17797417
