9
Energy:    -63.55325589
O   -0.17995990  -1.17345762   1.23617305
H   -0.81934391  -0.82576372   0.61445858
H   -0.63227856  -1.90030641   1.66434418
O    1.39777870   0.83413989  -0.12284662
H    1.12416115   0.11201640   0.44275301
H    1.67255862   1.52253017   0.48283207
O   -1.12599331   0.26838990  -1.22305250
H   -1.15687086   0.51927988  -2.14627114
H   -0.33019428   0.68190246  -0.88847348
