9
Energy:    -60.26227417
O    0.54248829   0.97542093   1.32553072
H    0.41788132   1.47051404   0.51584698
H    1.49204013   0.93841612   1.44048197
O   -0.40016950  -1.47818736   0.23733314
H   -0.16825643  -0.66985713   0.69455345
H   -0.93062427  -1.96636750   0.86703922
O   -0.30005711   0.60378073  -1.59347825
H   -0.58501716  -0.14079054  -1.06372054
H    0.01784954   0.21191071  -2.40686936
