9
Energy:    -61.71898827
O    1.27648448  -0.92826719  -0.68513159
H    0.36322626  -0.71334097  -0.87486295
H    1.69592780  -0.97329683  -1.54435885
O    0.21199948   0.75346829   1.49775604
H    0.79841383   0.17027786   1.01584423
H    0.28420663   0.46748843   2.40837863
O   -1.37508334   0.16487001  -0.83952837
H   -0.99612028   0.79908655  -0.23093307
H   -2.32097856   0.26513565  -0.73247288
