9
Energy:    -60.79063165
O   -1.33500431  -0.47372816  -0.48147690
H   -2.23384925  -0.74133234  -0.28991066
H   -1.08296156   0.07157922   0.26373861
O    1.48196179  -0.68264650  -0.76105855
H    0.53215225  -0.79024656  -0.81121749
H    1.74495905  -0.45372504  -1.65249517
O    0.05138311   0.88413292   1.47212486
H    0.06117052   1.82358452   1.28891255
H    0.67188227   0.51104263   0.84601284
