9
Energy:    -62.68299087
O    0.89842378  -0.85805390   1.17674661
H    0.78709252  -1.24008370   2.04731564
H    0.27973564  -0.12802329   1.15411585
O    0.15847556  -0.12829071  -1.72323534
H    0.35714457  -0.66776545  -0.95790569
H    0.79995400  -0.39842583  -2.38032306
O   -0.96028879   1.00801233   0.56165635
H   -0.59092544   0.92035722  -0.31704676
H   -1.78236713   1.48044141   0.43039395
