9
Energy:    -60.73846194
O   -0.03498311   1.59054480   0.39444433
H   -0.03662806   2.46091292  -0.00391289
H    0.89185412   1.36574325   0.47610736
O   -1.32344360  -0.74764202  -0.21222210
H   -1.93948002  -0.90870275   0.50247393
H   -1.02196468   0.14987917  -0.07151660
O    1.40606471  -1.11571655  -0.11690335
H    1.58040418  -1.60106080  -0.92330186
H    0.45216319  -1.04498496  -0.08083693
