9
Energy:    -61.10953284
O    0.79748926   0.17360847   1.41465890
H    1.55624649   0.15355649   1.99785460
H    1.04449602   0.78453939   0.72040901
O    0.57670493   0.39561175  -1.63044004
H   -0.18009871   0.02072963  -1.17994755
H    0.28940987   0.49806847  -2.53774154
O   -1.34289380  -0.74071688   0.05639256
H   -0.62758266  -0.51033321   0.64925442
H   -2.13086333  -0.68141642   0.59659560
