9
Energy:    -62.31839043
O   -0.30045123  -1.39609612  -0.91257570
H   -0.13559219  -2.28733022  -0.60475249
H   -0.94697414  -1.04620201  -0.29953893
O    1.53887127   0.63647616  -0.10739301
H    0.97141049  -0.05678248  -0.44445766
H    1.89324136   1.05833822  -0.89013568
O   -1.19759920   0.72152304   0.95906742
H   -1.54853036   1.39378848   1.54313791
H   -0.29666667   0.99708817   0.78990398
