9
Energy:    -60.39292013
O    1.33648855   0.41858863   1.05698907
H    1.32649860   0.37023129   2.01291459
H    0.44152704   0.66133621   0.81960891
O   -1.29130176   0.78653936   0.18923813
H   -1.11447356   0.04157173  -0.38520671
H   -1.43725414   1.52049209  -0.40762295
O   -0.12801153  -1.25674584  -1.14578411
H    0.51683754  -1.09311795  -1.83399006
H    0.39491667  -1.42070901  -0.36099495
