9
Energy:    -62.13712282
O   -0.17026401  -0.32142698  -1.53926887
H   -0.39281587   0.37939625  -2.15208966
H    0.49664760   0.06115073  -0.96909780
O   -1.17322600  -0.58195284   1.05374411
H   -1.74258905  -1.32909157   1.23770414
H   -0.98896824  -0.64564832   0.11660815
O    1.39721129   0.81672446   0.38725055
H    2.01146725   0.81336627   1.12135557
H    0.53320191   0.85480114   0.79745756
