9
Energy:    -62.62508583
O   -1.45622627  -0.52751602   0.87457640
H   -1.74188866  -1.28934384   1.37880574
H   -0.58974702  -0.76800611   0.54653666
O    0.45005999   1.50787552  -0.57091139
H    0.81814926   2.37612430  -0.40694130
H   -0.39467175   1.51641975  -0.12081458
O    0.97172035  -1.08787186  -0.22862348
H    0.94403507  -0.15256579  -0.43028642
H    1.01737863  -1.51640761  -1.08331891
