9
Energy:    -61.49212516
O   -0.17417042  -0.87824767  -1.39535105
H   -0.69902097  -1.65119547  -1.60347471
H   -0.79483494  -0.26601791  -1.00015220
O    1.40726341  -0.05216782   0.92099011
H    2.30275868  -0.36281928   0.78751451
H    0.89770217  -0.48810845   0.23795648
O   -1.13261037   1.06562816   0.36602767
H   -1.64165330   1.38795261   1.10981131
H   -0.22030391   1.17114142   0.63583448
