9
Energy:    -62.11190789
O    1.22753691   0.21392250  -1.16435231
H    2.09029690   0.02365213  -1.53269215
H    1.11207832  -0.43891019  -0.47390996
O    0.11374181  -0.75560018   1.52738575
H   -0.20815381  -0.75960831   2.42882848
H   -0.49204945  -0.18143739   1.05878583
O   -1.33571273   0.65728138  -0.25089710
H   -0.54461641   0.83974975  -0.75795111
H   -1.96616091   0.33782360  -0.89643073
