9
Energy:    -60.39256756
O   -1.17550532   0.83478702   0.39320719
H   -0.24347451   0.95833902   0.21352604
H   -1.62020990   1.33424259  -0.29163865
O   -0.37863438  -1.76016521  -0.11488601
H   -1.12650307  -2.35759578  -0.11389182
H   -0.74541777  -0.91607863   0.14821025
O    1.53300689   0.93111084  -0.19254331
H    2.10700236   0.86674637   0.57075104
H    1.66127551   0.10548340  -0.65957472
