60
Energy:   -847.65169003
O    1.83020262  -2.56144981   2.28938384
H    1.41971372  -2.77167934   1.45061436
H    1.11533152  -2.22242796   2.82813735
O    3.08764705   0.49447280  -0.73571465
H    2.89471673   1.42110916  -0.59304442
H    3.26491868   0.14878674   0.13910405
O    1.41256403  -2.79621586  -2.70512453
H    0.51797263  -2.75191780  -3.04272748
H    1.79585139  -1.94817522  -2.92906588
O    0.74717073   1.98830580   1.61173849
H    1.14863991   1.63567334   2.40590767
H   -0.11911768   2.28394983   1.89168643
O    1.87237034   0.71759080   3.68145187
H    2.53818662   0.30031066   3.13482785
H    1.22031431   0.03280828   3.83020563
O   -3.19236863   0.81725615  -1.87257953
H   -3.78029220   0.85423900  -2.62703960
H   -2.32142615   0.70159629  -2.25246614
O    2.12549334  -0.16910637  -3.16713553
H    2.51984748   0.03565054  -2.31931994
H    2.79263046   0.07711751  -3.80786458
O   -2.00356597  -0.14010299   2.08050703
H   -2.11227933   0.79379787   2.26006880
H   -1.40826417  -0.17279745   1.33165545
O   -3.63165454  -1.11781147   0.07249905
H   -3.23740297  -0.76012764   0.86802392
H   -3.55391037  -0.41377840  -0.57133721
O   -1.87548443   2.61448374   2.19936899
H   -2.26953404   3.33005295   2.69828527
H   -2.10682340   2.80054260   1.28937106
O    2.18790241   3.07195201  -0.38635566
H    1.69057520   2.79204765   0.38211753
H    2.62005319   3.88048143  -0.11111445
O   -0.24175947  -0.09046193   0.05537964
H    0.22554846  -0.92582296   0.06058495
H    0.33384771   0.50948288   0.52969436
O    0.57204723  -2.68245511  -0.13080821
H   -0.33463136  -2.95597132  -0.26992929
H    0.99250267  -2.80331749  -0.98218436
O   -1.20158988  -2.19097939  -3.23378187
H   -1.03974569  -1.26537363  -3.05132015
H   -1.58606684  -2.53118622  -2.42590278
O   -0.48966490   0.42261332  -2.55388399
H    0.37910852   0.26308375  -2.92268598
H   -0.38895055   0.24786442  -1.61817502
O    3.50088035  -0.51937279   1.82122750
H    2.96553504  -1.30357143   1.94234621
H    4.39049204  -0.80075013   2.03488538
O   -0.12364709   3.11888972  -1.91478869
H   -0.17953679   2.23037040  -2.26641577
H    0.72721687   3.15084249  -1.47747714
O   -0.12299821  -1.22461608   3.74042909
H   -0.55599101  -1.59401860   4.51003344
H   -0.83695347  -0.87053655   3.21021459
O   -2.39503411   3.02654152  -0.39926367
H   -1.61286802   3.21994897  -0.91602436
H   -2.82411890   2.31288467  -0.87129332
O   -2.07424801  -3.13357913  -0.78728185
H   -2.66005430  -2.45111946  -0.45969728
H   -2.60070536  -3.93269439  -0.76516190
