60
Energy:   -849.72966306
O    1.66731583  -2.46930931   2.59606777
H    1.32969022  -2.74423471   1.74362609
H    0.90182117  -2.12860645   3.05885426
O    2.69861598   2.13928775  -1.92495410
H    2.61268565   1.82315388  -1.02556141
H    3.35549861   2.83361819  -1.87355080
O    1.62939643  -2.59348176  -2.42824922
H    0.77523772  -2.73323631  -2.83704429
H    1.92654110  -1.75215393  -2.77480999
O    0.87797267   2.81146095   2.24389138
H    1.03402492   2.26154634   3.01166313
H   -0.07529073   2.87204551   2.18184101
O    1.43729138   0.90509060   4.11045791
H    2.19387932   0.50268529   3.68398810
H    0.77738274   0.21207133   4.13229176
O   -3.22239871   0.80361990  -2.01373005
H   -3.80211655   0.89871826  -2.76945181
H   -2.37556348   0.56319665  -2.38962711
O    2.00913911  -0.01821777  -3.49622284
H    2.35371085   0.70994288  -2.97922745
H    2.44624792   0.06142904  -4.34405780
O   -1.82632324   0.05940263   1.85461140
H   -1.93586939   1.00100572   1.98733330
H   -1.15463854  -0.01080205   1.17627313
O   -3.39272759  -1.15130696  -0.05423502
H   -2.98925346  -0.72265190   0.70054661
H   -3.45646422  -0.46241503  -0.71574647
O   -1.87402366   2.79895767   1.98287339
H   -2.37409774   3.50293503   2.39587900
H   -2.00220193   2.93255448   1.04374929
O    2.24011376   1.20652400   0.57552353
H    1.79721647   1.85518537   1.12261792
H    2.73399816   0.66806439   1.19388531
O    0.03620303  -0.23330812  -0.08281129
H    0.29173610  -1.15198211   0.00069195
H    0.82080002   0.25724627   0.16212913
O    0.60742023  -2.85965067   0.07943228
H   -0.27126736  -3.16574267  -0.14517326
H    1.08993378  -2.88805357  -0.74676734
O   -0.98367138  -2.56364853  -3.21046186
H   -0.99048117  -1.61394441  -3.09109868
H   -1.41085697  -2.90721397  -2.42579179
O   -0.60334777   0.12941556  -2.67221383
H    0.24167190   0.05461328  -3.11558525
H   -0.40163824  -0.00745724  -1.74657300
O    3.34559617  -0.37684079   2.54249094
H    2.81442796  -1.17313675   2.54027565
H    4.20751596  -0.66414115   2.84379581
O    0.00462333   2.79144628  -2.27137319
H   -0.25289133   1.90143779  -2.51179562
H    0.95065778   2.73907594  -2.13532902
O   -0.42098209  -1.13324468   3.83975727
H   -1.03384265  -1.43507219   4.51023019
H   -0.97522661  -0.72710337   3.17335342
O   -2.22043924   3.02486380  -0.67123568
H   -1.42294476   3.12757647  -1.19054725
H   -2.69589033   2.31316359  -1.09979247
O   -1.98484822  -3.34220849  -0.75757727
H   -2.51765528  -2.59309929  -0.49077417
H   -2.55502477  -4.10021952  -0.62893115
