60
Energy:   -847.07452575
O   -0.32416730   0.23463703   2.58166731
H   -0.16558361   0.36598859   3.51645596
H    0.37138459  -0.36030912   2.30152716
O    4.35539483   1.15122458   3.24940397
H    5.25771758   1.09354355   3.56359883
H    3.92009374   0.38750889   3.62819568
O   -4.67270041   0.23175953  -2.01067112
H   -3.97757317   0.80097258  -1.68047956
H   -4.47901039  -0.62672310  -1.63420919
O   -1.90580034  -0.64997672   0.51335457
H   -2.00666554   0.12913723  -0.03349047
H   -1.54007770  -0.32110720   1.33452668
O   -3.77925865  -2.12825841  -0.82674114
H   -3.19316832  -1.66355581  -0.22942928
H   -4.37491049  -2.60952142  -0.25244449
O    1.12375149  -0.80278965  -2.70407772
H    1.28620200  -1.63036379  -3.15680580
H    0.29077043  -0.49383193  -3.06033540
O    2.20590287   2.71989271   4.06987772
H    1.76378732   2.88332158   3.23677707
H    3.04418418   2.32866247   3.82400134
O    1.72754120  -1.28915690   1.68716494
H    2.24393989  -0.58906949   1.28786324
H    1.32273341  -1.74098840   0.94675236
O    2.86953124  -0.88565614   4.19501693
H    2.12232218  -0.46958526   4.62489539
H    2.50592616  -1.26328696   3.39413107
O   -2.17584564   1.31787242  -1.30853650
H   -1.89975928   0.80621429  -2.06894043
H   -1.49073059   1.97774818  -1.20170397
O   -1.57273427  -2.94090403  -2.33112159
H   -2.42955086  -2.85662216  -1.91279905
H   -0.94494813  -2.82122483  -1.61852542
O    0.75446877   0.69571963   5.08857553
H    1.24755662   1.46950444   4.81589754
H    0.48900958   0.88514102   5.98851042
O   -1.50320713  -0.37266827  -3.32845790
H   -1.61246292  -1.29190939  -3.08496092
H   -2.22456512  -0.19707721  -3.93264519
O    0.78100240  -3.31102869  -3.81617352
H   -0.10227732  -3.36825256  -3.45179156
H    0.89251190  -4.12676823  -4.30440142
O    2.99006885   0.97449066   0.84456736
H    3.64402248   1.06206416   1.53804222
H    2.28738195   1.57195044   1.10050634
O    0.20847004  -2.06376555  -0.46019174
H    0.58724991  -1.56358697  -1.18308803
H   -0.50466312  -1.51391361  -0.13563698
O   -0.01877400   2.98543842  -0.92573323
H    0.03875761   3.85695096  -1.31738085
H    0.73512630   2.51326000  -1.27916461
O   -3.86579523   0.12905176  -4.59551829
H   -4.52203547   0.49199853  -5.19037141
H   -4.27625172   0.16967828  -3.73174356
O    2.12786455   1.57546598  -1.72914138
H    1.92441016   0.74247683  -2.15454381
H    2.63336579   1.33175952  -0.95370118
O    0.88193623   2.49272735   1.63113002
H    0.32804588   1.77351237   1.93472044
H    0.48669518   2.76723853   0.80368819
