60
Energy:   -848.03904326
O    0.91416083  -3.13464992   2.68423315
H    0.66247833  -3.18384915   1.76202536
H    0.24322850  -2.58343310   3.08702549
O    2.92908967  -0.61335028  -0.33815788
H    3.02648787  -0.92234746   0.56254528
H    2.84276627  -1.41243934  -0.85800093
O    2.31775617  -2.79702200  -1.91768835
H    1.64112113  -2.43580532  -2.49033080
H    2.88762092  -3.29484492  -2.50391216
O    0.71153009   1.95778341   1.47134815
H    1.01342988   1.48762139   2.24854570
H   -0.17484981   2.24329587   1.69280956
O    1.39656409   0.36060073   3.52351002
H    2.04198069  -0.24316928   3.15590827
H    0.62848258  -0.18430904   3.69484592
O   -2.85084709   1.03773783  -2.37965617
H   -3.26137786   1.24204413  -3.21986761
H   -1.91435564   0.99762713  -2.57358077
O    2.55880071   1.45371985  -2.09780662
H    2.79600976   0.74656181  -1.49789728
H    2.53661993   2.23722050  -1.54838275
O   -2.32436349  -0.15483104   1.66665665
H   -2.38409533   0.77773681   1.87397563
H   -1.60177354  -0.21597865   1.04187142
O   -3.49856618  -1.06305525  -0.69425547
H   -3.29029080  -0.74716740   0.18498743
H   -3.36508881  -0.30277603  -1.26028651
O   -1.95488226   2.56728488   1.94815457
H   -2.30482204   3.27008340   2.49573858
H   -2.21577347   2.80398243   1.05813103
O    2.07847908   3.51297786  -0.30242836
H    1.66147899   2.98588804   0.37912801
H    2.68362746   4.08320786   0.17177101
O   -0.25540787  -0.13890938  -0.02934292
H    0.19839114  -0.97853034   0.04369780
H    0.29249143   0.47351785   0.46154515
O    0.37571574  -2.84068231   0.02553688
H   -0.41695760  -2.97159350  -0.49481211
H    1.09373998  -2.97421769  -0.59320486
O    0.19599499  -1.78982533  -3.24605483
H    0.10807018  -0.84394416  -3.12853931
H   -0.56877396  -2.15867947  -2.80411941
O   -0.04457677   0.87067009  -2.49906204
H    0.88919231   1.06864854  -2.57055811
H   -0.14854284   0.52019162  -1.61442214
O    3.01214741  -1.50809503   2.29684563
H    2.32423053  -2.15756713   2.44240729
H    3.77688317  -1.86277464   2.75029182
O   -0.22274467   3.59727281  -1.83987218
H   -0.13860148   2.70871992  -2.18574144
H    0.58627741   3.74133878  -1.34899530
O   -0.86245701  -1.25871469   3.68330549
H   -1.44220623  -1.43178452   4.42503962
H   -1.43910488  -0.90739720   3.00486233
O   -2.58641985   3.14352305  -0.58998682
H   -1.79133485   3.48357843  -1.00039398
H   -2.86299127   2.42628870  -1.16035072
O   -1.79734184  -2.91189976  -1.66249954
H   -2.41836226  -2.27302872  -1.31262915
H   -2.33852013  -3.66110190  -1.91160603
