60
Energy:   -851.89777901
O    1.58205423  -2.66434297   2.33110898
H    1.28178372  -2.86459707   1.44456075
H    0.80582761  -2.32458343   2.77638141
O    2.59065435   2.14467486  -1.69016847
H    2.66100347   1.69955121  -0.84568769
H    3.36361168   2.70788444  -1.72971315
O    1.83185880  -2.30773785  -2.71889477
H    0.95326102  -2.36598550  -3.09426790
H    2.36834440  -2.87272650  -3.27495490
O    0.64151388   2.55445027   2.13644668
H    0.87349032   2.04407885   2.91229447
H   -0.31275796   2.62144007   2.16975541
O    1.32914513   0.69716904   4.00277744
H    2.13074129   0.26493619   3.70807385
H    0.66499428   0.00806158   3.98645552
O   -3.16235873   1.18473448  -2.09776384
H   -3.65713678   1.40601754  -2.88672539
H   -2.29863768   0.92757605  -2.42038953
O    1.84129466   0.34892806  -3.64579430
H    2.01561095  -0.51383190  -3.26964150
H    2.18504329   0.96619571  -3.00000069
O   -1.90744979  -0.12064007   1.65158217
H   -2.06981470   0.80146703   1.85054947
H   -1.19249612  -0.10657430   1.01528409
O   -3.32430752  -1.08461599  -0.49617259
H   -2.97758230  -0.75035121   0.33103992
H   -3.39705329  -0.31146723  -1.05579827
O   -2.11367401   2.57750325   2.08672343
H   -2.65622316   3.15648015   2.62212797
H   -2.27677987   2.86005878   1.18683971
O    2.36798228   0.97033227   0.74011965
H    1.84354264   1.56126230   1.28048676
H    2.81795843   0.40601265   1.36884588
O    0.09668045  -0.24928477  -0.15915236
H    0.31248377  -1.18157495  -0.18141900
H    0.90240335   0.17663125   0.13348737
O    0.65998262  -2.88017835  -0.27746472
H    1.16369616  -2.79777285  -1.08722632
H   -0.21074936  -3.15627722  -0.56351903
O   -0.73452708  -2.35212061  -3.49073533
H   -0.84189231  -1.41132481  -3.35070741
H   -1.24308564  -2.75875649  -2.78913195
O   -0.69814799   0.27134898  -2.72360920
H    0.11936730   0.44583560  -3.18992992
H   -0.43273230   0.14628912  -1.81248550
O    3.35910507  -0.68488446   2.70004850
H    2.79692721  -1.44723312   2.56216294
H    4.18466479  -1.04994785   3.01850057
O    0.33710332   3.38746475  -0.58135372
H    1.06703664   3.01620048  -1.07692616
H    0.58062719   3.26093522   0.33566223
O   -0.50260922  -1.35034330   3.60601531
H   -1.11662456  -1.71913691   4.24100214
H   -1.05927695  -0.93830526   2.94527517
O   -2.40262937   3.27985030  -0.47280653
H   -1.47247162   3.38638562  -0.67202658
H   -2.69619036   2.58492492  -1.06198606
O   -1.92312134  -3.28892539  -1.19072114
H   -2.44437760  -2.52383647  -0.94748729
H   -2.53330677  -4.02397766  -1.13068994
