60
Energy:   -850.01303958
O    1.78180677  -2.30191199   2.62354323
H    1.45339992  -2.68896082   1.81201752
H    1.02105422  -1.86450158   3.00585141
O    0.26438992   0.97663813  -2.26844597
H    0.24775673   0.49031974  -1.44415863
H    0.35059319   1.89278816  -2.00487443
O    1.77139529  -2.72127174  -2.39365352
H    2.37039909  -3.21926869  -2.94991365
H    2.14819211  -1.84191628  -2.36218957
O    0.93484552   2.71660309   1.44234342
H    1.23171779   2.35176917   2.27600697
H   -0.01398398   2.79692302   1.53982740
O    1.67500008   1.28670099   3.62529390
H    2.46370727   0.77375496   3.44905774
H    0.98890789   0.63310097   3.76063184
O   -3.44542846   2.09061096  -2.68486901
H   -4.23167771   2.04862691  -3.22918630
H   -3.05613360   1.21920993  -2.75795523
O    2.73891838  -0.19699881  -2.23570543
H    1.94660460   0.28189386  -2.47887724
H    2.98306581   0.16070653  -1.38208329
O   -1.78667699   0.09541843   1.63533015
H   -1.91418348   1.04384118   1.65696900
H   -1.02780363  -0.03177622   1.06597561
O   -3.03287716  -1.39764597  -0.33301395
H   -2.75328988  -0.83205434   0.38682555
H   -2.78350502  -0.92009702  -1.12421076
O   -1.81277000   2.83934492   1.63145259
H   -2.27305911   3.43514128   2.22254691
H   -2.04078131   3.14772041   0.75444219
O    2.74825094   0.83576738   0.38652757
H    2.28330431   1.59498804   0.73815304
H    3.18682966   0.45046317   1.14509281
O    0.34575050  -0.37472336   0.07288440
H    0.47141555  -1.32363808   0.07388725
H    1.21205964  -0.01770840   0.26853878
O    0.75814754  -3.04782127   0.14495428
H   -0.11066203  -3.40980518  -0.02931398
H    1.20209795  -3.07064819  -0.70275959
O   -0.95438768  -2.76796501  -3.04799098
H   -0.00466810  -2.73136934  -2.93430137
H   -1.27073253  -3.23599430  -2.27526440
O   -2.08652486  -0.29911337  -2.70241300
H   -1.79950956  -1.16786564  -2.98370212
H   -1.28127775   0.21629982  -2.65595684
O    3.66775008  -0.38516194   2.67110739
H    3.07205360  -1.13433892   2.66055261
H    4.49056120  -0.73756154   3.01026549
O    0.55493159   3.49759240  -1.19919843
H    0.78554646   3.32091280  -0.28714967
H    1.16880520   4.17852341  -1.47437836
O   -0.24217084  -0.72833116   3.70413563
H   -0.79785428  -0.99968080   4.43476354
H   -0.85716731  -0.45410956   3.02383151
O   -2.20584829   3.72433971  -0.86138523
H   -1.29741136   3.73303458  -1.16287918
H   -2.67097519   3.20336817  -1.51596713
O   -1.79029800  -3.76172772  -0.60124605
H   -2.28354824  -2.95486065  -0.45325425
H   -2.43082092  -4.46144679  -0.47335763
