60
Energy:   -857.01688324
O    2.21564924  -2.15611060   2.11130654
H    1.62475165  -2.60902753   1.50969359
H    1.63886789  -1.77844757   2.77532895
O    2.32651435   0.60673660  -0.86383386
H    2.23325837   1.55922328  -0.88127777
H    2.88320529   0.43397146  -0.10457155
O    0.65390130  -3.22653299  -2.53073628
H    0.98741031  -2.36194904  -2.77052404
H    1.12490837  -3.83254558  -3.10269165
O    0.89337417   3.34565440   1.69423706
H    1.32513683   2.73512832   2.29179104
H   -0.04187080   3.20330691   1.84013392
O    2.28145481   1.52158987   3.23658939
H    2.83180618   1.03821548   2.62039591
H    2.88200786   1.79834304   3.92867000
O   -2.20413594  -0.21092425  -1.56013814
H   -2.27283166  -1.09657901  -1.91668881
H   -1.41873989  -0.23257528  -1.01340591
O    1.49995520  -0.74571003  -3.12900464
H    1.92623331  -0.28085693  -2.40898353
H    0.78373434  -0.16953857  -3.39599900
O   -1.47509923   0.11749003   2.28562521
H   -0.89970438  -0.00990483   1.53135526
H   -1.64875352   1.05871485   2.29873560
O   -3.30430497  -1.29127607   0.80144988
H   -2.79930901  -0.80142720   1.45049457
H   -3.15593494  -0.82393947  -0.02062961
O   -1.80669840   2.81721817   1.95539456
H   -2.44967178   3.40690026   2.34921192
H   -2.08709204   2.73038980   1.04431164
O    1.78647781   3.28732621  -0.83627695
H    1.45662746   3.35491437   0.05974896
H    2.28600094   4.09290240  -0.96952676
O   -0.04024794  -0.38482048   0.03660402
H    0.15043704  -1.31959417   0.11450927
H    0.78183937   0.00369506  -0.26249459
O    0.39430884  -3.05411335   0.20735767
H   -0.49071113  -3.39378570   0.34000077
H    0.58105353  -3.22488316  -0.71578692
O   -2.07453059  -2.79615252  -2.31809010
H   -2.25305059  -3.26057644  -1.50036590
H   -1.16059365  -3.00082337  -2.51572858
O   -0.71507438   0.83283183  -3.60276260
H   -1.22374020   0.83990898  -4.41358986
H   -1.31007315   0.46497359  -2.94939545
O    3.68495553  -0.01846962   1.44450085
H    4.59975272  -0.29744457   1.40511906
H    3.19982174  -0.81583587   1.65683108
O   -0.54795220   3.26585173  -2.30144571
H   -0.49469341   2.47922046  -2.84422246
H    0.28599407   3.29058628  -1.83224036
O    0.67955673  -0.65636890   3.79780413
H   -0.17207801  -0.43936039   3.41851871
H    1.19072517   0.14880735   3.71638010
O   -2.51857056   2.45479527  -0.61646612
H   -1.88729256   2.86401573  -1.20829257
H   -2.65267629   1.57842617  -0.97733274
O   -2.28504662  -3.72608255   0.29320462
H   -2.69776488  -2.90313302   0.55521524
H   -2.79813363  -4.40302913   0.73447199
