60
Energy:   -846.25695377
O    1.71760760  -2.07742664   2.89403304
H    1.24467231  -2.41255313   2.13228879
H    1.07293314  -1.54727523   3.36261192
O    2.27338089   1.95085576  -2.43345368
H    2.67577539   1.41641985  -1.74884520
H    1.53276834   2.37642678  -2.00146503
O    1.76693348  -2.25514845  -1.99952512
H    1.02456551  -2.79437261  -2.27221349
H    1.84764425  -1.59306014  -2.68607933
O    0.50400891   3.67723278   1.59314770
H    0.90903707   4.48231714   1.91567401
H    0.96495744   2.97571123   2.05317575
O    1.71143850   1.60217391   2.84407424
H    2.43935861   1.03990643   2.57908472
H    1.13581488   1.02762703   3.34883674
O   -3.35308072   0.55044019  -1.91283190
H   -3.98658072   0.53743080  -2.63028597
H   -2.54388089   0.21779411  -2.30112828
O    1.51751749  -0.18783992  -3.86871749
H    1.80442714   0.62091864  -3.44466055
H    1.84418806  -0.11745101  -4.76569217
O   -1.67685648   0.30517433   1.93520768
H   -1.94684254   1.22204068   1.98712564
H   -1.00539464   0.29097308   1.25317457
O   -3.17121277  -1.22959865   0.20498847
H   -2.80772046  -0.69278302   0.90921440
H   -3.36985315  -0.60631672  -0.49379152
O   -2.16415677   2.94519823   1.88831814
H   -1.28613438   3.32607830   1.87286169
H   -2.49182341   3.06124004   0.99646574
O    2.81275179  -0.01207056  -0.55375091
H    3.19112654  -0.13102859   0.31740544
H    2.75156489  -0.89767282  -0.91179649
O    0.13822992  -0.05426938  -0.11878331
H    0.08117411  -0.97272628   0.14468092
H    1.07572419   0.10712592  -0.22502784
O    0.42663258  -2.65852966   0.51484680
H   -0.38529913  -3.12975210   0.32790254
H    0.95388606  -2.76542596  -0.27686578
O   -0.69635523  -3.24795750  -2.57666783
H   -0.92428612  -2.32853516  -2.71429744
H   -1.25178714  -3.52650972  -1.84856351
O   -0.93598308  -0.49758707  -2.63033663
H   -0.20309169  -0.32995644  -3.22279087
H   -0.56815583  -0.38042506  -1.75443251
O    3.56178948  -0.31952742   2.06027995
H    2.96929386  -1.00088917   2.37796998
H    4.39156180  -0.49749440   2.50304117
O    0.06916552   2.63892983  -0.91219089
H   -0.03811171   1.73030000  -0.63091650
H    0.28146472   3.11516896  -0.10947227
O   -0.02244787  -0.22288659   3.99864650
H   -0.49190615  -0.17329991   4.83134208
H   -0.69368984  -0.06441218   3.33490564
O   -2.65909395   2.99099092  -0.79916588
H   -1.72443908   2.99498896  -1.00565112
H   -2.98851739   2.18336152  -1.19343328
O   -2.04123841  -3.64785905  -0.19336810
H   -2.51238371  -2.82692521  -0.05081428
H   -2.63040857  -4.32393613   0.14134097
