60
Energy:   -851.77200292
O    1.63363511  -1.49047929   2.72947693
H    1.15035826  -1.99591631   2.07586486
H    0.95647554  -1.03285315   3.22773900
O    2.92881972   0.24190053  -0.82647880
H    2.88297908   1.18778657  -0.96587058
H    3.31753895   0.14600822   0.04296578
O    1.33244376  -3.61511292  -1.69597460
H    1.69248607  -2.84903482  -2.14288145
H    1.90491421  -4.33641196  -1.95719698
O    0.38042105   2.46277633   3.19515137
H    0.21005615   1.61100097   3.59725382
H   -0.21828153   2.50008406   2.44923235
O    2.58195764   2.60102249   1.60618285
H    3.00806884   1.76480594   1.79433962
H    1.85326208   2.64373550   2.22538414
O   -2.97127840   0.55493944  -1.74824779
H   -2.19171489   0.28299730  -2.23256178
H   -2.85561439   1.49589216  -1.61610521
O    2.09266009  -1.34645793  -2.90634718
H    2.53966877  -0.80469995  -2.25602928
H    1.26470172  -0.89394766  -3.06744107
O   -2.49728950   0.10123675   2.33693288
H   -2.14498057   0.86742601   1.88409263
H   -3.03744589  -0.33832902   1.68024052
O   -3.93356070  -0.99684347   0.23760436
H   -4.87778868  -0.84039856   0.25140124
H   -3.60883276  -0.44269693  -0.47211757
O   -1.17969334   2.05662384   0.97940272
H   -1.57551960   2.53362241   0.25000174
H   -0.62705033   1.39572434   0.56223440
O    2.32191058   2.89475434  -1.06364101
H    2.88181717   3.62916877  -1.31537878
H    2.32804017   2.90536943  -0.10651950
O    0.29957931   0.03280924  -0.14961000
H    0.21320153  -0.85103935   0.20757676
H    1.23875089   0.14005984  -0.30022843
O    0.20487158  -2.58718960   0.61757124
H   -0.70774402  -2.85061847   0.49937715
H    0.67259584  -3.01326365  -0.10070919
O   -1.18071983  -2.83101752  -2.55642763
H   -1.71190515  -3.00644815  -1.77970497
H   -0.34052101  -3.25108044  -2.37245771
O   -0.46942496  -0.22052442  -2.70612769
H   -0.78241802  -1.11989760  -2.80305588
H   -0.23392741  -0.14673565  -1.78128826
O    3.64973951   0.05538067   1.82029434
H    4.42392264  -0.19352937   2.32518653
H    2.94878365  -0.49568406   2.16846156
O    0.02825572   2.61067228  -2.62311641
H   -0.00598218   1.68821856  -2.87637269
H    0.82883854   2.68748508  -2.10407999
O   -0.36685770  -0.09263164   4.01514872
H   -0.70743405  -0.20489784   4.90263726
H   -1.14439774  -0.10047209   3.45693563
O   -2.23665875   3.17934468  -1.30203614
H   -1.43536099   3.07249654  -1.81461513
H   -2.56607377   4.04348523  -1.54897479
O   -2.39413221  -3.21750959  -0.09075412
H   -2.96916029  -2.46417427   0.04363502
H   -2.92167384  -3.97191304   0.17155698
