60
Energy:   -855.20228341
O    2.45982291  -3.03356035   0.54804721
H    2.37717812  -3.14507493  -0.39903578
H    1.56035878  -3.07018773   0.87340019
O    2.58654887   0.46110264  -0.48675795
H    2.61595614   1.41309491  -0.39148061
H    3.03480542   0.12814645   0.29069821
O    1.91030506  -3.25662129  -2.16677245
H    2.08728420  -4.00912791  -2.73125808
H    0.96235715  -3.13476431  -2.21947430
O    0.95920631   3.06060985   2.02128902
H    1.10681973   2.23159036   2.47644702
H    0.00757224   3.16328638   2.01223511
O    1.43037350   0.57982904   3.10935781
H    2.13792883   0.05972148   2.72845701
H    0.75016849  -0.05930752   3.32162524
O   -3.04520304   0.93885186  -2.24525319
H   -3.47660370   1.07816631  -3.08829340
H   -2.15170733   0.68146799  -2.47252131
O    2.15065979  -0.62980873  -2.97990656
H    2.47597603  -0.21555726  -2.18065884
H    2.19050575  -1.56852583  -2.79700126
O   -1.97298984   0.58529570   1.78591483
H   -1.99709268   1.53679846   1.88737123
H   -1.24454259   0.42632960   1.18564304
O   -3.64061022  -0.61801643  -0.03881233
H   -3.19578575  -0.13162252   0.65529429
H   -3.54657135  -0.06722350  -0.81599679
O   -1.79498712   3.30876481   1.78788580
H   -2.26711780   4.06696284   2.13206630
H   -1.95576125   3.33386657   0.84461837
O    2.23854968   3.15496121  -0.32891606
H    1.78858888   3.17741800   0.51563282
H    2.77080433   3.95047685  -0.33849131
O    0.01677648  -0.21712103   0.11696889
H    0.05333287  -1.10786912   0.46548479
H    0.93349896   0.04310955   0.02679246
O   -0.14521063  -2.65975311   1.32014245
H   -0.97341042  -2.89583312   0.90231092
H   -0.39996974  -2.28610755   2.16377663
O   -0.72109889  -2.66274678  -2.34872440
H   -0.74984446  -1.71936142  -2.50819102
H   -1.34795639  -2.80547481  -1.63956276
O   -0.39994626   0.12011478  -2.50579795
H    0.45941475  -0.10314767  -2.86340720
H   -0.30068815   0.01540239  -1.55953425
O    3.42692058  -0.83766855   1.78112921
H    3.13476687  -1.65402086   1.37560861
H    4.28356322  -1.04759858   2.15304939
O    0.15451303   2.90425221  -2.14454931
H    0.12428662   1.97566178  -2.37484918
H    0.92048565   2.98577647  -1.57633141
O   -0.75571250  -1.10131585   3.51535932
H   -1.16931690  -1.13300163   4.37800597
H   -1.28311270  -0.47529556   3.01919456
O   -2.21704482   3.20826942  -0.86640122
H   -1.37775036   3.26195186  -1.32349513
H   -2.67556743   2.48316760  -1.29092003
O   -2.42091778  -3.00306048  -0.18918467
H   -2.90024890  -2.17639657  -0.13350435
H   -3.10266921  -3.67439378  -0.21672438
