60
Energy:   -850.77512853
O    2.19271268  -2.18121891   2.14790428
H    1.66287163  -2.60812487   1.47466464
H    1.55384337  -1.79535510   2.74722637
O    2.60830036   0.58073103  -0.81588541
H    2.48317955   1.52953733  -0.83441192
H    3.14419130   0.42447285  -0.03830190
O    1.31800594  -3.28386635  -2.57761946
H    1.56528803  -2.38687672  -2.80232598
H    1.87636837  -3.83201410  -3.12897895
O    0.89440996   3.35046750   1.60104861
H    1.31904246   2.72884509   2.19223782
H   -0.04208465   3.22904925   1.75746890
O    2.07310563   1.39676430   3.09522775
H    2.76660558   0.96040471   2.60037426
H    1.52000205   0.68328904   3.41344359
O   -3.40289692   0.57429553  -1.43565148
H   -2.60382224   0.41715128  -1.93865963
H   -3.40236843  -0.10850128  -0.76481612
O    1.76151095  -0.69186901  -3.11093742
H    2.21405478  -0.23497753  -2.40193382
H    0.88986158  -0.29693973  -3.13307557
O   -1.47852716   0.17990604   2.00992695
H   -1.63342545   1.12280010   2.06639961
H   -0.86634214   0.08051494   1.28082973
O   -3.39635894  -1.20764136   0.67891997
H   -4.24745457  -1.01641847   1.07300358
H   -2.76989511  -0.71689777   1.21084632
O   -1.80446523   2.89494431   1.95429170
H   -2.24088473   3.60256116   2.42868422
H   -2.11251597   2.98489767   1.05249074
O    1.83699685   3.19292269  -0.90251738
H    1.49770981   3.29817450  -0.01367644
H    2.26303601   4.02768489  -1.09718261
O    0.16934805  -0.33852826  -0.06772147
H    0.32008094  -1.28264146  -0.02122714
H    1.03422710   0.03446897  -0.23827689
O    0.54637837  -3.01906304   0.05894994
H   -0.37023659  -3.28812291  -0.00151203
H    0.91152500  -3.21537118  -0.80381474
O   -1.33642826  -2.54560156  -2.88402528
H   -1.72233638  -2.89251370  -2.07968783
H   -0.45654260  -2.92160307  -2.90963671
O   -0.87035101   0.10085449  -2.52175770
H   -1.12007267  -0.77847117  -2.80576004
H   -0.53971223  -0.01932019  -1.63155105
O    3.81061870  -0.10463744   1.55680658
H    4.70588301  -0.32844207   1.81106068
H    3.30348432  -0.89467547   1.74358581
O   -0.53056816   2.93967417  -2.31220213
H   -0.59493899   2.02188003  -2.57628955
H    0.32083930   3.00583447  -1.87981343
O    0.41949576  -0.73206546   3.72372427
H    0.04153536  -0.86598476   4.59288674
H   -0.31202201  -0.42387851   3.18880895
O   -2.63776413   3.04902124  -0.58054558
H   -1.92742733   3.18507313  -1.20755703
H   -3.07091292   2.24910798  -0.87845956
O   -2.15755895  -3.41103512  -0.37605277
H   -2.63274801  -2.67398992   0.00760276
H   -2.75256863  -4.15498179  -0.28257184
