60
Energy:   -850.40789032
O    2.24075979  -2.05676244   2.20262638
H    1.68256200  -2.47992829   1.55026318
H    1.62949397  -1.70687506   2.85082756
O    2.52065863   0.64932995  -0.86583223
H    2.48579923   1.59997471  -0.97209231
H    3.08777516   0.51332462  -0.10681099
O    1.27645288  -3.32583493  -2.44237599
H    1.52467934  -2.44157036  -2.71198986
H    1.85969607  -3.90050936  -2.93816681
O    0.50325281   3.36546119   1.04754290
H    0.87853821   2.69302420   1.61606836
H   -0.30973823   2.97859193   0.72256661
O    1.66454145   1.47431692   2.61418752
H    2.47394776   1.08555812   2.28258554
H    1.27410497   0.78934205   3.15695877
O   -3.34988526   0.58046724  -1.32317444
H   -4.01717747   0.78191658  -1.97920121
H   -2.56482358   0.38044155  -1.83297806
O    1.69863264  -0.75409249  -3.08407188
H    2.14485972  -0.27065629  -2.38880021
H    0.80895848  -0.40098136  -3.08899909
O   -1.50365893   0.05273887   2.23000004
H   -1.70230099   0.96922473   2.42190329
H   -0.93951632   0.08613253   1.45743301
O   -3.35823337  -1.28388906   0.71422996
H   -2.82217553  -0.83167765   1.36567350
H   -3.48170632  -0.64035320   0.01648511
O   -1.94176394   2.71551373   2.57601316
H   -1.16072195   3.25710626   2.68951552
H   -2.20201913   2.85742459   1.66587010
O    1.95298434   3.30703416  -1.20758493
H    1.48399382   3.42653209  -0.38175203
H    2.39603106   4.14261515  -1.35504969
O    0.08603622  -0.21213941   0.01112300
H    0.23601457  -1.15436342   0.08827381
H    0.95094110   0.15425071  -0.17307712
O    0.51791303  -2.88793426   0.17874592
H   -0.38408219  -3.20780830   0.16093981
H    0.87589736  -3.13173340  -0.67485882
O   -1.39747565  -2.63031206  -2.72114981
H   -1.77481937  -2.98215795  -1.91489424
H   -0.51864189  -3.00769350  -2.75944221
O   -0.92266321   0.01482078  -2.47191324
H   -1.16113458  -0.88684128  -2.68724735
H   -0.58821868  -0.03275232  -1.57630423
O    3.76475472   0.05675330   1.50907242
H    4.65062122  -0.08169193   1.84419228
H    3.29569365  -0.74751118   1.73127101
O   -0.48845493   2.86859259  -2.47523269
H   -0.52486758   1.94192370  -2.71227855
H    0.41502242   3.00845240  -2.19168415
O    0.48917900  -0.69737498   3.87357894
H    0.17199213  -0.78809137   4.77213048
H   -0.29495747  -0.50094703   3.36096026
O   -1.94375399   2.66277918  -0.19374446
H   -1.50071793   2.91689945  -1.00329606
H   -2.54565803   1.96692744  -0.45781592
O   -2.14699243  -3.49608047  -0.19588884
H   -2.61325315  -2.73599982   0.15212007
H   -2.69796187  -4.24318205   0.03757155
