60
Energy:   -847.05592413
O    1.77043434  -2.41935989   2.55597071
H    1.42690566  -2.72393124   1.71605632
H    1.00712641  -2.06769142   3.01414333
O    2.33184193   1.93552745  -2.15905423
H    2.63157624   1.58385010  -1.32077371
H    1.61604737   2.52780672  -1.92867354
O    1.52993789  -2.65669774  -2.52152844
H    0.66384382  -2.86471015  -2.87201915
H    1.76294933  -1.82554144  -2.93519102
O    0.96309718   2.97400988   1.81104037
H    1.31578564   3.79361007   2.15759229
H    1.07867551   2.34344238   2.52185550
O    1.47431290   1.09736808   3.65945354
H    2.27665551   0.62757704   3.43191327
H    0.83476033   0.40781173   3.83754451
O   -3.22271287   0.82583777  -2.04112679
H   -3.80459356   0.64717925  -2.77986074
H   -2.36224645   0.52749615  -2.33578194
O    1.74048450  -0.13607899  -3.76614187
H    2.01081220   0.60695886  -3.22665180
H    2.18740950  -0.00111761  -4.60177057
O   -1.75075002  -0.04720875   1.78230591
H   -1.88522565   0.89275324   1.90321754
H   -1.05661242  -0.10786787   1.12600925
O   -3.34995517  -1.18298786  -0.12059363
H   -2.92515248  -0.77755435   0.63531522
H   -3.40581610  -0.48142602  -0.76937895
O   -1.82236661   2.64747848   1.88214325
H   -0.88825481   2.85564300   1.90043324
H   -2.10062443   2.87064040   0.99388474
O    2.51278336   1.04650242   0.45006950
H    2.12072636   1.77481712   0.93181721
H    2.97566401   0.53920726   1.11687155
O    0.18252769  -0.28431547  -0.08893785
H    0.40580808  -1.21356874  -0.03540214
H    1.01305978   0.17051073   0.05099576
O    0.68292157  -2.92245132   0.05737385
H   -0.20656137  -3.23390832  -0.11009702
H    1.11065588  -2.94619113  -0.79861192
O   -1.12296885  -2.80706988  -3.14008243
H   -1.09139453  -1.85663725  -3.03093703
H   -1.48474897  -3.13145321  -2.31538706
O   -0.76637267  -0.13414684  -2.63240415
H    0.01422354  -0.04904397  -3.17981525
H   -0.43018680  -0.15360359  -1.73639503
O    3.53161075  -0.39467876   2.55902975
H    2.97466769  -1.17301964   2.54380624
H    4.40049217  -0.72571984   2.78638129
O    0.31571532   3.37995379  -0.94119269
H   -0.63766014   3.30611293  -0.98425770
H    0.52328393   3.26977998  -0.01328707
O   -0.28629265  -1.03147844   3.81775866
H   -0.86424761  -1.30446387   4.53027453
H   -0.87895064  -0.71621555   3.13541148
O   -2.43828179   3.12457863  -0.76562150
H   -3.03929882   3.81299420  -1.05039223
H   -2.75373655   2.33421011  -1.20384263
O   -1.95878103  -3.45287792  -0.59159657
H   -2.48705119  -2.67430600  -0.41556175
H   -2.53915512  -4.18710774  -0.39083713
