60
Energy:   -855.62621944
O    1.79459517  -2.36177194   2.34820536
H    1.28962726  -2.76556630   1.64238005
H    1.13859135  -1.93251679   2.89741466
O    2.58322500   0.37775788  -0.59460008
H    2.49947086   1.32997295  -0.54456445
H    3.05037532   0.13558744   0.20499726
O    1.31831880  -3.30705825  -2.45453768
H    1.61142957  -4.03137583  -3.00742281
H    0.43393037  -3.11148755  -2.76411973
O    0.88622862   3.45555773   1.96708143
H    1.21182791   2.67575599   2.41666589
H    0.94382043   4.15157590   2.62166049
O    1.82646522   1.24187550   3.17371097
H    2.52276811   0.73195000   2.75974224
H    1.20896656   0.58615794   3.49768896
O   -3.20001422   0.74921461  -1.73757455
H   -2.41649478   0.58460507  -2.26220093
H   -3.06980991   1.62790739  -1.38095476
O    1.98418070  -0.69156628  -3.08709089
H    2.36601042  -0.32775591  -2.28829183
H    1.90226657  -1.62844373  -2.90881422
O   -1.69721236   0.08808111   1.94899968
H   -1.82723320   1.03586769   1.98104683
H   -1.07702405  -0.04497086   1.23213464
O   -3.48944110  -1.10828292   0.24239265
H   -3.00231926  -0.67994798   0.94629132
H   -3.51947240  -0.45768575  -0.45907245
O   -1.79071823   2.78478408   1.83221479
H   -0.87530904   3.06436710   1.84176468
H   -2.09999584   3.00578908   0.95372974
O    1.98991155   3.04918287  -0.49567300
H    1.60744263   3.24165953   0.36042402
H    2.54997964   3.80244924  -0.68314394
O    0.05746329  -0.44774281  -0.04570291
H    0.14387283  -1.39858584   0.02258151
H    0.95415072  -0.13286172  -0.15986683
O    0.31554918  -3.13426267   0.11636479
H   -0.60164415  -3.34324607  -0.06059339
H    0.76503775  -3.30736678  -0.71081526
O   -1.18056938  -2.56787728  -3.06396538
H   -1.13808355  -1.61252044  -3.02249123
H   -1.70624507  -2.81793672  -2.30411855
O   -0.56282266   0.12183652  -2.60638072
H    0.28729556  -0.08431832  -2.99500784
H   -0.45266235  -0.06653286  -1.67438634
O    3.58155174  -0.41953319   1.83242576
H    3.00323268  -1.16415070   1.99772449
H    4.44460409  -0.71755010   2.11975555
O   -0.23186898   2.84299698  -2.13276259
H   -0.26769376   1.93218991  -2.42495929
H    0.57587614   2.89967683  -1.62230489
O    0.04248705  -0.77733523   3.80977346
H   -0.42258936  -0.96964816   4.62399180
H   -0.64110468  -0.48767431   3.20559572
O   -2.51863276   3.25093219  -0.78856527
H   -1.69834883   3.19018231  -1.27813199
H   -2.98882601   3.97760608  -1.19733808
O   -2.32478538  -3.33986341  -0.66823664
H   -2.76677402  -2.56240892  -0.32700006
H   -2.98643544  -4.03024376  -0.62550457
