60
Energy:   -848.39712234
O    1.81017218  -2.40882256   2.18063088
H    1.19355039  -2.77132494   1.54454800
H    1.25703349  -1.97992047   2.83355695
O    2.44529183   0.36660816  -0.69374214
H    2.43457526   1.32361806  -0.70952332
H    2.95117088   0.14513064   0.08809285
O    0.56011656  -3.01498793  -2.52173437
H    1.19605492  -2.31949583  -2.68937979
H    0.88121934  -3.76099180  -3.02829441
O    1.00218866   3.28690025   1.68240483
H    1.34931374   2.61654510   2.27092840
H    0.05162056   3.19933952   1.75301115
O    2.03289063   1.22468822   3.16448740
H    2.68293048   0.73102942   2.66450637
H    1.47388129   0.55494666   3.55842478
O   -2.36973890  -0.43822991  -1.30637188
H   -2.68927732  -1.25367541  -0.92013921
H   -1.51842777  -0.29436591  -0.89308704
O    2.19264635  -0.95437199  -3.07059645
H    2.41597594  -0.51038134  -2.25253285
H    1.66583303  -0.31741382  -3.55328046
O   -1.47461503   0.34655187   2.32467289
H   -0.95302840   0.14602933   1.54751786
H   -1.61709160   1.29206563   2.28067275
O   -3.71717809  -1.17050301   2.01867145
H   -2.95406876  -0.61578380   2.18048183
H   -4.45492649  -0.56130142   1.98981734
O   -1.75545126   3.00611072   1.75610277
H   -2.21522912   3.82407968   1.94521370
H   -2.00470376   2.79308206   0.85681204
O    2.07104718   3.07176840  -0.76396580
H    1.68940922   3.19017394   0.10584133
H    2.62522825   3.84202137  -0.88976547
O   -0.06066864  -0.33097230   0.11395900
H    0.03432079  -1.28263025   0.15340499
H    0.79582035  -0.01607467  -0.17500111
O   -0.04834709  -3.02560855   0.16427785
H   -1.00316883  -3.09276966   0.17033380
H    0.19393218  -3.13263730  -0.75554684
O   -1.30058544  -1.29574510  -3.65841768
H   -1.79244500  -0.97983082  -2.90045713
H   -0.73503100  -1.98377801  -3.30771733
O    0.34588880   0.76525377  -4.18816158
H    0.22059358   1.03130671  -5.09906706
H   -0.29819908   0.07073304  -4.05023552
O    3.60724346  -0.46548440   1.64091906
H    4.47997394  -0.79693798   1.85237091
H    3.02278621  -1.20497822   1.80762377
O   -0.21306119   2.71502069  -2.29412894
H    0.01261493   2.06192924  -2.95652889
H    0.60195944   2.86138772  -1.81397282
O    0.34421390  -0.83106740   3.94308351
H   -0.03832016  -0.99612445   4.80485826
H   -0.35928469  -0.41646876   3.44365428
O   -2.42395607   2.29202297  -0.75287662
H   -1.69841673   2.52750185  -1.33112761
H   -2.62660777   1.38438551  -0.97950048
O   -2.81929790  -2.80987489   0.07230561
H   -3.16294293  -2.31299152   0.81476561
H   -3.46236755  -3.50448067  -0.06987765
