60
Energy:   -846.23288230
O    1.70487018  -2.51547434   2.36871981
H    1.32944870  -2.83363620   1.54770605
H    0.97799955  -2.07691258   2.81093527
O    3.40712623   0.02381367  -0.11344209
H    3.39711122   0.97944026  -0.16738072
H    3.63808133  -0.16278579   0.79654265
O    0.59639417  -2.48386446  -2.76678646
H    1.35892616  -1.90526602  -2.76597921
H    0.75239241  -3.08545913  -3.49478388
O    1.12273650   2.99443477   1.50792647
H    1.28754275   2.37413724   2.21806851
H    0.16937224   3.01689589   1.42531933
O    1.65712616   1.06166596   3.36764440
H    2.43107281   0.54476072   3.14393164
H    0.98095399   0.41137627   3.55776638
O   -4.84994489   0.97327203  -0.75689945
H   -5.63328630   0.63875928  -1.19360220
H   -4.35090937   0.18979888  -0.52589030
O    2.66795529  -0.74842965  -2.71908578
H    3.15173641  -0.69568812  -1.89482489
H    2.17074527   0.06856595  -2.75822937
O   -1.47194366   0.19828559   1.42547874
H   -1.60327461   1.14612171   1.44978371
H   -0.68568263   0.07852856   0.89285908
O   -3.22563104  -1.12821600  -0.18363499
H   -2.65515861  -0.64155035   0.41130164
H   -2.75775029  -1.12785256  -1.01869147
O   -1.64103012   2.92254196   1.25681666
H   -2.16800164   3.56299334   1.73468160
H   -2.01200634   2.91699003   0.37444617
O    2.85880007   2.71432476  -0.51076120
H    2.24606634   2.85948487   0.21015334
H    3.39939986   3.50404189  -0.52894290
O    0.70107573  -0.32694565  -0.08979911
H    0.56768041  -1.27465884  -0.10644974
H    1.64459299  -0.21947330   0.03043703
O    0.41495086  -3.01935286  -0.06075412
H   -0.48529594  -3.28916069   0.12088088
H    0.48196458  -3.03427594  -1.01548880
O   -1.82263152  -1.10264670  -2.48951332
H   -0.98971267  -1.54761492  -2.64597838
H   -1.69518623  -0.22295359  -2.84466059
O    1.04986396   1.40723456  -2.16508612
H    1.65783386   2.01597368  -1.74551355
H    0.80044005   0.79927103  -1.46909768
O    3.65450136  -0.66489689   2.52507302
H    4.36913856  -1.01835589   3.05478260
H    3.02151323  -1.38063206   2.46779270
O   -1.41737032   1.53244661  -3.24986312
H   -0.52088781   1.59068120  -2.91946986
H   -1.38338301   1.94932938  -4.11084249
O   -0.25255929  -0.94765332   3.55234864
H   -0.90475073  -1.24355246   4.18742490
H   -0.76638934  -0.56384950   2.84178185
O   -2.79485616   2.72892721  -1.16985828
H   -2.34881437   2.34652397  -1.92553436
H   -3.57766660   2.19012326  -1.05527221
O   -2.20394600  -3.55805063   0.45166255
H   -2.64745201  -2.73265095   0.25608743
H   -2.88879749  -4.22242242   0.37537085
