60
Energy:   -848.05025498
O    2.01428046  -2.38165489   1.90213659
H    1.34751259  -2.92909370   1.48745211
H    1.52147462  -1.80115668   2.48213321
O    0.62949633   2.44985865  -0.54211862
H    0.92372747   3.36011206  -0.50897339
H    1.11183350   2.01595593   0.16166482
O    1.07080992  -3.61486134  -2.30359525
H    1.55787334  -2.79415769  -2.22979420
H    1.63195113  -4.18003600  -2.83456604
O    1.71052467   3.93536575   2.44628806
H    1.95121183   3.03437402   2.23061366
H    0.78161618   3.88805647   2.67239132
O    2.01997861   1.31864142   1.54882537
H    2.67568953   0.73062795   1.17397181
H    1.56715245   0.78701726   2.20346731
O   -3.38315512   1.08525675  -1.38309553
H   -3.98361940   1.43006146  -2.04399205
H   -2.69780099   0.64651057  -1.88710282
O    2.29972943  -1.21266258  -1.84587305
H    2.90283450  -0.95045785  -1.15035540
H    2.07665967  -0.39510964  -2.29093364
O   -1.44559671   0.03010901   1.69755385
H   -1.65070133   0.92943147   1.44185276
H   -0.89314448  -0.30069724   0.98931971
O   -3.49542765  -1.13338649   0.30003491
H   -2.88957643  -0.78385147   0.95348837
H   -3.64461663  -0.40499286  -0.30280605
O   -1.00278533   3.73316110   2.80279620
H   -1.57268967   4.47212829   3.01579475
H   -1.39023781   3.35037367   2.01565822
O    1.52835446   4.96808712  -0.04117797
H    1.62672210   4.71756367   0.87740445
H    2.21632347   5.61724686  -0.18788218
O    0.03588133  -0.97717277  -0.32050148
H   -0.03348518  -1.90189417  -0.08320319
H    0.87010696  -0.91056102  -0.78511134
O    0.03216603  -3.60419200   0.26493666
H   -0.90367500  -3.73507878   0.11228653
H    0.44237901  -3.79957221  -0.57754998
O   -1.54077206  -2.95066876  -3.03893649
H   -1.99544018  -3.21478299  -2.23909124
H   -0.63475038  -3.22774331  -2.90260501
O   -1.35029694  -0.27459222  -2.54421885
H   -1.51001811  -1.13462943  -2.93287937
H   -0.90490283  -0.46346204  -1.71827447
O    3.60530907  -0.68702194   0.51797871
H    4.51275086  -0.84936073   0.77571377
H    3.09823054  -1.33951692   1.00104549
O    1.11360472   1.00878761  -2.82612152
H    0.24087589   0.65421378  -2.99598513
H    0.98669811   1.62233111  -2.10245659
O    0.69237894  -0.34053853   3.29391874
H   -0.14839107  -0.20963541   2.85551025
H    0.53329600  -0.07938220   4.20095889
O   -1.87166110   2.44974678   0.51939693
H   -1.02896452   2.50458174   0.06874470
H   -2.47593812   2.11240674  -0.14187672
O   -2.61343884  -3.54582822  -0.54173515
H   -2.96051145  -2.70313865  -0.24908050
H   -3.33480105  -4.16114542  -0.41038385
