60
Energy:   -850.04803645
O    2.02288289  -2.66442815   2.24519767
H    1.44222397  -2.89861581   1.52116507
H    1.43743067  -2.54279529   2.99264867
O    2.81647836   0.59358942  -0.48611780
H    2.64960141   1.53549011  -0.45137556
H    3.04892522   0.35776014   0.41198290
O    1.47517388  -3.22804477  -2.55008138
H    1.82902387  -2.35139736  -2.70011919
H    2.10333831  -3.81553782  -2.97019233
O    0.76040504   3.16087737   2.04866433
H    0.84744055   2.45729464   2.69180352
H   -0.18419098   3.27164056   1.94048979
O    0.77451326   0.78947558   3.47549671
H    1.51447738   0.47170225   2.95809449
H    0.00681452   0.60681173   2.93373624
O   -3.08021985   0.70837859  -1.90930041
H   -3.64801851   0.59143842  -2.67098376
H   -2.19505422   0.57007817  -2.24632660
O    2.19585697  -0.65804795  -2.88930254
H    2.59093388  -0.22102776  -2.13487598
H    1.35778227  -0.21245446  -3.01303247
O   -1.39915569   0.41728084   1.88434843
H   -1.65510665   1.33538960   1.79604642
H   -0.81624456   0.25817874   1.14196512
O   -3.18889428  -0.96078332   0.29410488
H   -2.68175566  -0.50483364   0.96578349
H   -3.24636600  -0.33589142  -0.42869452
O   -1.96274751   3.08863780   1.63220605
H   -2.62624637   3.60788033   2.08650586
H   -2.16646073   3.19854839   0.70341521
O    1.94936631   3.17389042  -0.37378958
H    1.54109410   3.20150196   0.49153304
H    2.43337390   3.99726855  -0.43716901
O    0.27468577  -0.23394480  -0.12195025
H    0.33674713  -1.18669806  -0.05382192
H    1.18234996   0.06105530  -0.19511111
O    0.42808052  -2.93741770  -0.01309982
H   -0.48912106  -3.16329285  -0.16786909
H    0.87005403  -3.15228504  -0.83451524
O   -1.09936897  -2.35189559  -3.12470135
H   -1.58923576  -2.70444187  -2.38175217
H   -0.24631513  -2.78337743  -3.07617895
O   -0.47454914   0.22993045  -2.64797450
H   -0.72104748  -0.63706723  -2.97013199
H   -0.24281153   0.08796188  -1.73016491
O    2.98096922  -0.17092359   2.13723652
H    3.75002805  -0.14629929   2.70659933
H    2.71059940  -1.08914465   2.13868567
O   -0.09465566   3.04268885  -2.24414089
H   -0.09759922   2.14065688  -2.56439314
H    0.64391236   3.07915408  -1.63634207
O    0.43922410  -1.79863630   4.32082369
H   -0.43114994  -1.89320116   4.70778412
H    0.54908124  -0.85485157   4.20492015
O   -2.50037673   3.24003418  -0.98521288
H   -1.67729563   3.33963281  -1.46359501
H   -2.85947211   2.40891682  -1.29589969
O   -2.20840107  -3.24029742  -0.73447134
H   -2.59701253  -2.45904726  -0.34094731
H   -2.84366227  -3.93587627  -0.56463279
