60
Energy:   -856.31584310
O    1.73352888  -2.50420847   2.28443558
H    1.28110470  -2.81281458   1.49938369
H    1.03915131  -2.14220175   2.83491062
O    2.70482692   0.53300823  -0.37483783
H    2.58714910   1.47910906  -0.28953257
H    3.09949776   0.26448766   0.45483891
O    1.65128678  -3.07371811  -2.57464218
H    2.03375353  -2.21039852  -2.73158270
H    2.20158161  -3.67485694  -3.07667760
O    0.73973769   3.08929261   2.08749048
H    1.07193022   2.40146137   2.66435109
H   -0.21246399   3.00546435   2.13765655
O    1.62944289   0.97070271   3.55470894
H    2.33307708   0.53582832   3.07302955
H    0.98858540   0.27913187   3.71982492
O   -3.29443785   0.87783060  -1.89513113
H   -3.79886573   0.98014999  -2.70217209
H   -2.40127274   0.70198112  -2.19104478
O    2.45015566  -0.50693626  -2.94296970
H    2.63908180  -0.10599920  -2.09456636
H    1.77232706   0.04993258  -3.32595448
O   -1.72456128   0.01651396   1.87842883
H   -1.87910218   0.95285299   2.00340152
H   -1.03551965  -0.02660222   1.21540963
O   -3.39864556  -1.10148344   0.02334602
H   -2.91644038  -0.71067884   0.75203097
H   -3.49005458  -0.39154818  -0.61216020
O   -1.99402450   2.72973314   2.04095384
H   -2.55151195   3.34791184   2.51349451
H   -2.15429799   2.92012207   1.11667233
O    1.95472497   3.14404662  -0.29897777
H    1.51922251   3.17861924   0.55271125
H    2.47328628   3.94775274  -0.33615949
O    0.16620792  -0.30684326  -0.02801017
H    0.26278093  -1.25854960  -0.06207704
H    1.06301628   0.02655270  -0.05653647
O    0.40982931  -2.99736575  -0.11096690
H   -0.48563251  -3.21780984  -0.36745156
H    0.92921753  -3.14567148  -0.90120303
O   -0.87288102  -2.20783714  -3.29687246
H   -1.42274885  -2.60035283  -2.61878054
H   -0.00564164  -2.58587595  -3.15122095
O   -0.67495053   0.36992521  -2.49628868
H   -0.75488658  -0.48055883  -2.92816711
H   -0.39132004   0.16136827  -1.60618217
O    3.46622297  -0.45301185   2.07621557
H    4.29914571  -0.71800467   2.46640831
H    2.91819518  -1.23625998   2.12540645
O   -0.15397827   3.08455279  -2.09077738
H   -0.23683833   2.16837871  -2.35533573
H    0.60047563   3.09698138  -1.50181499
O   -0.16816247  -1.12682374   3.75928452
H   -0.69679251  -1.35817266   4.52299899
H   -0.79451394  -0.75733449   3.13687518
O   -2.42397463   3.13939471  -0.57807478
H   -1.64303998   3.27996375  -1.11343753
H   -2.87467798   2.40715378  -0.99869523
O   -2.16607203  -3.23004068  -1.06503267
H   -2.62545521  -2.49104059  -0.66618707
H   -2.79449545  -3.95114752  -1.02868998
