60
Energy:   -846.88320136
O    1.98295140  -2.23720469   2.32483446
H    1.38732802  -2.63921972   1.69249867
H    1.40876519  -1.77193318   2.93316370
O    2.16679755   0.93935938  -0.22635363
H    1.88110092   1.68666818   0.29913552
H    2.82790846   0.50545749   0.31299168
O    0.51109303  -3.21229428  -2.40540267
H    0.92001098  -2.44395880  -2.80374742
H    0.82595716  -3.94981355  -2.92804763
O    1.15287276   2.96139589   1.30474434
H    1.58804120   2.57425399   2.06433727
H    0.23613913   3.04133471   1.56826107
O    2.30127803   1.39095943   3.21349225
H    2.94838428   0.85610213   2.75369555
H    1.68463158   0.75805235   3.58147001
O   -2.14320222   0.12554040  -1.56129646
H   -2.29672474  -0.74206961  -1.93534934
H   -1.40453282   0.00255529  -0.96508003
O    1.49142792  -0.98703859  -3.59851274
H    2.19117995  -0.34757956  -3.46558009
H    0.71480871  -0.45833910  -3.78173750
O   -1.53295427   0.35642283   2.38720675
H   -0.99927372   0.12721187   1.62636560
H   -1.61550742   1.30908719   2.34422488
O   -3.42407778  -0.85863322   0.78022202
H   -2.92382121  -0.40367102   1.45770603
H   -3.22349588  -0.38340273  -0.02609971
O   -1.54814319   3.05029760   1.88091575
H   -1.97317327   3.83048875   2.23712223
H   -1.84582732   3.00860552   0.97213758
O    0.38159837   3.62648128  -1.34332186
H    1.01637714   3.20310559  -1.92128448
H    0.79912160   3.61926760  -0.48201229
O   -0.15651624  -0.34317894   0.18054679
H    0.02692137  -1.28161571   0.22435236
H    0.69675392   0.06105150   0.02319485
O    0.19398983  -3.01664057   0.33185914
H   -0.72744453  -3.26218777   0.41490823
H    0.40476604  -3.18282430  -0.58693801
O   -2.16874841  -2.48180396  -2.29033017
H   -2.41055039  -2.90845545  -1.46830088
H   -1.27111980  -2.77028883  -2.45547012
O   -0.53330403   0.89165058  -3.62241189
H   -1.02962952   1.44715381  -4.22350174
H   -1.16340320   0.64949078  -2.94376212
O    3.76212093  -0.34637920   1.61076093
H    4.65142853  -0.69049946   1.69409816
H    3.19695030  -1.08307854   1.84332939
O    1.93055144   1.85687170  -2.78684123
H    1.06588242   1.53700182  -3.04425642
H    2.07764148   1.47947340  -1.91956567
O    0.47204828  -0.56382671   3.96156850
H   -0.29739495  -0.24140810   3.49227626
H    0.15995757  -0.72507420   4.85197880
O   -2.16230929   2.83601270  -0.72475482
H   -1.32912949   3.15040834  -1.07575150
H   -2.28259241   1.97557808  -1.12652102
O   -2.55448462  -3.36332459   0.30874406
H   -2.91268681  -2.50896115   0.54954720
H   -3.19389770  -3.99374121   0.64034269
