60
Energy:   -851.74678259
O    1.79658754  -2.31103782   2.57845650
H    1.41036252  -2.67391708   1.78134877
H    1.06149895  -1.90536564   3.03813758
O    2.49931651   2.00680028  -2.18803587
H    2.57015489   1.62299597  -1.31401755
H    3.22486445   2.62927967  -2.23632104
O    1.50712338  -2.69889756  -2.38529353
H    0.64938997  -2.92117654  -2.74739475
H    1.73451697  -1.86685402  -2.80029660
O    0.76892955   2.81292825   1.65295097
H    1.09154203   2.42850894   2.46804288
H   -0.17986943   2.86176253   1.76968809
O    1.68264041   1.26066759   3.69009744
H    2.45126348   0.78036357   3.38226879
H    1.02868445   0.58289927   3.86098790
O   -3.24135052   0.80078339  -1.97024022
H   -3.81527094   0.83918170  -2.73533680
H   -2.40438630   0.48793130  -2.31352772
O    1.73876973  -0.17954094  -3.65489049
H    2.05846383   0.59512144  -3.19236944
H    2.10985457  -0.10432499  -4.53402099
O   -1.79698308   0.05878953   1.85814263
H   -1.94593763   1.00277379   1.91234691
H   -1.13876235  -0.04120435   1.17040828
O   -3.37625452  -1.17828700  -0.02233227
H   -2.96736207  -0.74380416   0.72617523
H   -3.44764783  -0.49375514  -0.68757732
O   -1.97755411   2.79370707   1.85043577
H   -2.48836103   3.43921338   2.33893321
H   -2.20823924   2.94848952   0.93443434
O    2.35023561   1.03064458   0.32834062
H    1.86412931   1.68174796   0.83430200
H    2.87265632   0.56203763   0.97927531
O    0.04306223  -0.35936567  -0.07417752
H    0.26420135  -1.28573536   0.02157498
H    0.87342586   0.09984430   0.05173628
O    0.59756958  -2.97750359   0.17209176
H   -0.28916782  -3.28965712  -0.00815475
H    1.03844875  -3.00364265  -0.67712798
O   -1.12067298  -2.91356616  -3.06634796
H   -1.13185841  -1.95834805  -3.00580792
H   -1.51816294  -3.21058370  -2.24780403
O   -0.82266376  -0.22099549  -2.64315433
H   -0.01322606  -0.12781782  -3.14550916
H   -0.53655084  -0.24954149  -1.73016124
O    3.57462955  -0.31100587   2.38950083
H    3.00930446  -1.08130843   2.44671411
H    4.44224107  -0.63119237   2.63640706
O    0.27443371   3.32385323  -1.10165418
H    0.98640476   2.90447945  -1.58482569
H    0.56031211   3.30469765  -0.18834237
O   -0.16753875  -0.80628487   3.83580341
H   -0.70198107  -1.09514829   4.57550684
H   -0.80193771  -0.51976079   3.17878457
O   -2.44611006   3.14678503  -0.75538823
H   -1.53836023   3.25112028  -1.04058333
H   -2.75158724   2.36149258  -1.20951521
O   -2.03902380  -3.47611296  -0.52257997
H   -2.54247879  -2.68233902  -0.34178214
H   -2.64115872  -4.19290193  -0.32288280
