60
Energy:   -848.76752490
O    1.74553541  -2.19312761   2.63526383
H    1.37507537  -2.50578075   1.80989166
H    1.00411216  -1.80379060   3.09888015
O    2.52721787   1.77365704  -2.23976974
H    2.84915306   1.54300614  -1.36834003
H    1.76022335   2.32207209  -2.07486924
O    1.56391158  -2.74610043  -2.34326786
H    0.72336485  -3.00664390  -2.71987129
H    1.81285075  -1.96146420  -2.83174215
O    0.74163332   2.89531828   1.66179806
H    1.02698030   2.48032311   2.47579312
H   -0.19769489   3.03597532   1.78058343
O    1.56567463   1.35118380   3.73780093
H    2.36584955   0.87809539   3.50946060
H    0.92197167   0.66430173   3.91121193
O   -3.20614412   0.68916168  -2.13375346
H   -3.79516747   0.63366534  -2.88621841
H   -2.36142098   0.38693608  -2.46742146
O    1.83348877  -0.33957413  -3.76951514
H    2.15541040   0.40319849  -3.25874401
H    2.31145118  -0.28685603  -4.59716518
O   -1.66170721   0.24065090   1.73921925
H   -1.85988530   1.17403164   1.81509870
H   -0.95109263   0.19743483   1.09938245
O   -3.25622443  -1.12324634  -0.03741969
H   -2.82447706  -0.63443645   0.66321641
H   -3.35996343  -0.48715954  -0.74513690
O   -2.02765438   2.96210991   1.75363541
H   -2.58911520   3.57412403   2.22948446
H   -2.29537521   3.05224721   0.83906847
O    2.61038236   1.16399850   0.48126390
H    2.15757563   1.87434484   0.93580322
H    3.06614311   0.68724679   1.17496541
O    0.27751917  -0.05669092  -0.17430400
H    0.37270030  -0.99922596  -0.03719056
H    1.13177600   0.30713525   0.05830650
O    0.56089813  -2.70131633   0.18269092
H   -0.29935874  -3.08951264   0.02302381
H    1.03826115  -2.83032010  -0.63689094
O   -1.05598128  -3.00829921  -3.06251736
H   -1.05993262  -2.05146655  -3.03629717
H   -1.46194437  -3.27267760  -2.23696912
O   -0.72265148  -0.29302069  -2.72589801
H    0.05646427  -0.23839943  -3.27927583
H   -0.38158736  -0.30305091  -1.83157899
O    3.57798388  -0.22521612   2.64545654
H    3.00159719  -0.98935205   2.63513584
H    4.42757124  -0.56916382   2.92137890
O    0.16320004   2.69178686  -1.08921553
H    0.06885349   1.74685067  -0.96910653
H    0.45834686   3.01368599  -0.23745197
O   -0.26964743  -0.72736101   3.85257456
H   -0.87362212  -1.00395180   4.54173633
H   -0.83670948  -0.41215408   3.14878690
O   -2.54139269   3.06426682  -0.88081534
H   -1.61685425   3.09221863  -1.12714685
H   -2.88722871   2.29507317  -1.33355194
O   -2.00123759  -3.46401013  -0.50267178
H   -2.50406548  -2.66809288  -0.32972178
H   -2.58701048  -4.17761275  -0.24994017
