60
Energy:   -854.61788312
O    2.32611875  -2.92607997   1.28325449
H    2.35848727  -3.18976086   0.36365864
H    1.39391263  -2.92719135   1.50056155
O    2.63449334   0.33479436  -0.25059660
H    2.65746582   1.29007719  -0.30662186
H    2.98572140   0.13679375   0.61754305
O    2.10011341  -3.58592834  -1.40617804
H    2.32025487  -4.41777110  -1.82547174
H    1.16707722  -3.46714344  -1.58384481
O    0.74200643   3.30206408   1.58243425
H    0.82414150   2.55376673   2.17365059
H   -0.19850935   3.37908059   1.42202735
O    1.06720749   1.02715899   3.09552430
H    1.81457155   0.46312220   2.89667434
H    0.36848894   0.42144219   3.34277193
O   -2.73744829   0.61907719  -2.47922509
H   -1.87140678   0.29181637  -2.72233883
H   -2.59278735   1.53885013  -2.25713772
O    2.51094400  -1.12408446  -2.58164364
H    2.73131213  -0.59433148  -1.81546382
H    2.49549160  -2.02369669  -2.25500789
O   -2.11705843   0.81908834   1.45597029
H   -2.15012005   1.76879905   1.34112981
H   -1.34824322   0.54360140   0.95670885
O   -3.66802461  -0.66029421  -0.25987501
H   -3.26694870  -0.08980302   0.39580003
H   -3.46512786  -0.24323844  -1.09720962
O   -1.95318346   3.49001132   0.90062017
H   -2.48392401   4.24489500   1.15497614
H   -2.03386715   3.45007463  -0.05233684
O    2.29115452   3.01486154  -0.57994102
H    1.75196163   3.17231338   0.19511497
H    2.87881025   3.76933166  -0.62077507
O    0.00022316  -0.25357611   0.13209718
H   -0.02599687  -1.08621833   0.60353253
H    0.92791100  -0.01863416   0.11137502
O   -0.35181641  -2.48235216   1.66775306
H   -1.13302763  -2.77619329   1.19913992
H   -0.69118739  -1.98468376   2.41165181
O   -0.48081400  -3.02897800  -1.97905433
H   -0.49290216  -2.13788093  -2.32838472
H   -1.20335442  -3.05059267  -1.35159915
O   -0.06878495  -0.31135162  -2.55016438
H    0.82407216  -0.59014304  -2.75342129
H   -0.10252694  -0.29273845  -1.59374037
O    3.19453653  -0.57307954   2.27763769
H    2.92890335  -1.43934512   1.96900392
H    3.99609631  -0.73136153   2.77631652
O    0.34963058   2.46622656  -2.48891172
H    0.35603898   1.51755211  -2.61622067
H    1.08051430   2.63345497  -1.89386930
O   -1.14873621  -0.60837738   3.53700249
H   -1.67719834  -0.53928629   4.33210377
H   -1.60201232  -0.05733778   2.89893668
O   -2.11922216   3.24189970  -1.82308019
H   -1.21658268   3.03725197  -2.06719720
H   -2.44319283   3.78898116  -2.53860569
O   -2.44971839  -3.03567733  -0.02912816
H   -2.92391468  -2.20967380  -0.12445867
H   -3.12643618  -3.70963507  -0.09289218
