60
Energy:   -850.29282776
O    1.88998167  -2.30077379   2.70918145
H    1.46852778  -2.76797727   1.98784285
H    1.17307402  -1.84776786   3.15309688
O    1.88402204   2.58874352  -3.58979388
H    2.07532561   3.41068684  -4.04150616
H    1.24232448   2.82643924  -2.92049810
O    1.61643192  -2.71467301  -2.07843167
H    0.78172134  -2.79523219  -2.53995123
H    1.99558440  -1.90014470  -2.40861174
O    0.74024962   2.60740935   1.10451086
H    1.14274363   2.29482893   1.91477249
H   -0.17311068   2.77259070   1.33843376
O    1.81025706   1.34031586   3.25108158
H    2.58236680   0.82567456   3.01608641
H    1.19047564   0.69851823   3.59777832
O   -3.22217671   0.58950513  -1.88145289
H   -3.73040216   0.40430990  -2.67116262
H   -2.31644046   0.40516025  -2.13023122
O    2.15508210   0.00478540  -2.68686205
H    2.41968865   0.22546762  -1.79382533
H    2.23790913   0.82602056  -3.17157262
O   -1.86509448   0.11723797   2.12437006
H   -1.96948145   1.06616534   2.05457001
H   -1.17238635  -0.09466348   1.49868238
O   -3.35260903  -1.22606071   0.21884694
H   -2.99468675  -0.75507629   0.97137413
H   -3.43236744  -0.56086148  -0.46480533
O   -1.94270851   2.83798434   1.69048988
H   -2.32513359   3.55223391   2.20022556
H   -2.28350322   2.96571358   0.80517860
O    2.42194783   0.66969789  -0.02142843
H    2.06013717   1.47767088   0.34258329
H    2.98759088   0.32694062   0.67052333
O    0.05230194  -0.58605751   0.37377071
H    0.24266985  -1.52345652   0.40947795
H    0.91247300  -0.16769589   0.33756081
O    0.60224311  -3.21219391   0.41000004
H   -0.28419311  -3.47234922   0.15943691
H    1.08393709  -3.17464594  -0.41631280
O   -0.97984567  -2.53021544  -2.92341131
H   -0.90550717  -1.59517123  -2.73262880
H   -1.39966572  -2.90089697  -2.14715222
O   -0.50537850   0.09292502  -2.14331055
H    0.36893699   0.04526953  -2.53000580
H   -0.38387788  -0.19613960  -1.23892618
O    3.69756272  -0.38248976   2.17226068
H    3.13069039  -1.13078991   2.35916840
H    4.58044428  -0.69491243   2.37010930
O   -0.00798847   2.76353603  -1.59720531
H   -0.17977582   1.83650368  -1.76252919
H    0.35300680   2.78639117  -0.71098192
O    0.00043222  -0.65390766   3.94844894
H   -0.39595187  -0.84579416   4.79832603
H   -0.73623366  -0.40259657   3.39131523
O   -2.64657929   3.10612766  -0.88200926
H   -1.76748718   3.17038423  -1.25523843
H   -3.00217258   2.29441793  -1.24382767
O   -1.99849404  -3.44364839  -0.52056029
H   -2.50966352  -2.69190051  -0.22087254
H   -2.60814839  -4.18040656  -0.47883706
