60
Energy:   -852.34951670
O    1.93788772  -2.49470048   2.26018700
H    1.53039580  -2.85141876   1.47092517
H    1.20473040  -2.17035665   2.78317196
O    2.76602284   0.57138616  -0.29079563
H    2.56952958   1.50171998  -0.18079002
H    3.17756983   0.31384622   0.53414928
O    1.51796852  -2.46746444  -2.73707577
H    2.16771546  -2.90567402  -3.28665119
H    1.70976126  -1.53490030  -2.83592670
O    0.71495255   3.20476911   2.16393842
H    1.02359117   2.48306693   2.71177052
H   -0.23167444   3.07489100   2.10683439
O    1.61718591   0.99633509   3.49794836
H    2.38796885   0.60210704   3.08964730
H    1.04008473   0.25613590   3.68580799
O   -3.60960512   0.90313586  -1.64159783
H   -4.14337267   0.86750201  -2.43535742
H   -2.75643736   0.56260560  -1.91062526
O    2.09323112   0.18607374  -2.92543577
H    2.48539262   0.33384460  -2.06485168
H    1.58474198   0.97873931  -3.09675984
O   -1.65847482   0.04044543   1.92311138
H   -1.83478529   0.98107443   1.94217818
H   -0.95358831  -0.05867440   1.28315660
O   -3.34165297  -1.20677407   0.15379839
H   -2.86261172  -0.78641070   0.86797342
H   -3.60803064  -0.48409788  -0.41454473
O   -1.96310383   2.76610703   1.72439377
H   -2.58573274   3.39835393   2.08332126
H   -1.97867400   2.92338660   0.78033203
O    1.72847781   3.08365166  -0.30412858
H    1.35464767   3.16327508   0.57344933
H    2.12204693   3.93913104  -0.47585573
O    0.26410140  -0.42764041   0.07792319
H    0.41179272  -1.37294387   0.04927885
H    1.13812134  -0.04565335  -0.00211975
O    0.65542779  -3.07671650  -0.16316121
H   -0.25606798  -3.30972437  -0.33955465
H    1.05194405  -2.98601774  -1.02963708
O   -1.17859916  -2.37981998  -3.28581674
H   -1.53307377  -2.81453969  -2.51018902
H   -0.23247462  -2.51068814  -3.22293813
O   -1.12718587   0.06981922  -2.18114591
H   -1.14652707  -0.74351896  -2.68546601
H   -0.66013188  -0.15739993  -1.37711614
O    3.60088393  -0.37439595   2.14536844
H    3.07683786  -1.17500330   2.17057602
H    4.44400864  -0.62750970   2.52127534
O    0.21969815   2.39570205  -2.52893072
H   -0.21984929   1.55609674  -2.39442115
H    0.69393459   2.55186571  -1.71226399
O   -0.05599165  -1.20155948   3.72077527
H   -0.54494193  -1.44880662   4.50564999
H   -0.70624665  -0.78730563   3.15350634
O   -2.04396238   3.09382825  -0.96202028
H   -1.34383563   3.04472660  -1.61289923
H   -2.67898533   2.43478244  -1.24244195
O   -2.00983112  -3.35128420  -0.83172758
H   -2.49976461  -2.60798991  -0.48000236
H   -2.59502542  -4.10010596  -0.71751090
