60
Energy:   -850.96043637
O    1.90167870  -2.31934072   2.29544620
H    1.46038465  -2.66513053   1.51961064
H    1.19431427  -1.97347700   2.83973077
O    2.83707119   0.45545395  -0.24759810
H    2.70201949   1.40133229  -0.30510515
H    3.21924264   0.31987551   0.61946321
O    1.45862436  -2.82623887  -2.65732058
H    1.87288852  -1.96884757  -2.75477422
H    2.00191631  -3.41607040  -3.17997195
O    0.63910678   3.03295026   1.67583443
H    0.99852170   2.45824823   2.35168230
H   -0.30702323   3.00939897   1.81906565
O    1.62711041   1.22215996   3.46714523
H    2.41622053   0.80234286   3.12466798
H    1.05040943   0.49478070   3.70074156
O   -3.61952534   0.80750329  -1.65132623
H   -4.14660779   0.64483086  -2.43360088
H   -2.71801824   0.65132271  -1.93261688
O    2.60701155  -0.40340322  -2.84176468
H    2.86957183  -0.18459158  -1.94766434
H    2.13547970   0.37061269  -3.14964278
O   -1.65333860   0.08328672   1.93083286
H   -1.84974759   1.01600074   2.01858194
H   -0.96433771   0.04449314   1.26750437
O   -3.40562418  -1.18570247   0.24722827
H   -2.88826059  -0.75514929   0.92780943
H   -3.60303425  -0.49027408  -0.38017946
O   -2.09252930   2.78890837   1.99086084
H   -2.59627218   3.36159235   2.56922753
H   -2.43151570   2.97409861   1.11506141
O    1.93010070   3.00972148  -0.68560843
H    1.42709656   3.06037557   0.12719711
H    2.40290901   3.84094634  -0.72743412
O    0.22380711  -0.27106776   0.00559173
H    0.30456983  -1.22471725  -0.01059115
H    1.12566565   0.04690481  -0.03655645
O    0.51022451  -2.95592345  -0.06093818
H   -0.39715736  -3.21064797  -0.22828635
H    0.93676174  -3.01174190  -0.91603007
O   -1.18745189  -2.20280538  -3.14050706
H   -1.59296624  -2.65347359  -2.39977221
H   -0.26840919  -2.46853104  -3.10916639
O   -1.05378765   0.35998693  -2.29935637
H   -1.09907828  -0.49309934  -2.73112531
H   -0.60499109   0.18661717  -1.47185626
O    3.63573156  -0.24883925   2.27698154
H    4.47543461  -0.54652673   2.62699984
H    3.08672638  -1.03292358   2.27090609
O    1.08765725   1.86968832  -3.12228941
H    1.32393321   2.31606812  -2.30917774
H    0.27411770   1.40953317  -2.91578882
O   -0.02133535  -0.98768411   3.79548543
H   -0.52893985  -1.26550043   4.55797321
H   -0.67296081  -0.63767901   3.18793911
O   -2.98272999   3.22360717  -0.51835578
H   -2.46287888   3.62811221  -1.21287889
H   -3.30625696   2.40943506  -0.90395393
O   -2.12705276  -3.31986031  -0.78173642
H   -2.60876336  -2.58562725  -0.40083150
H   -2.71758585  -4.06761350  -0.69026137
