60
Energy:   -846.26114489
O    2.01969412  -2.14462336   2.64727188
H    1.55682221  -2.63965538   1.97130979
H    1.32866415  -1.68288949   3.12215215
O    2.45106277   0.42221464  -0.57214538
H    2.42373306   1.37581900  -0.65039920
H    2.99109368   0.26027761   0.20140156
O    2.14868996  -3.16833341  -1.83856536
H    2.06116240  -2.35692411  -2.33875104
H    2.80438471  -3.67565221  -2.31702526
O    0.93228108   3.34511349   1.47799770
H    1.32316086   2.76358436   2.13012401
H   -0.01142028   3.25191955   1.60828386
O    1.96322215   1.48513454   3.18000805
H    2.64222731   0.96476900   2.75058571
H    1.33869235   0.83922098   3.51014448
O   -3.85751064   0.60326463  -1.61317346
H   -4.72693141   0.86969153  -1.91209834
H   -3.35064484   0.49256866  -2.41757716
O    1.58299373  -0.69874868  -2.90765751
H    1.94576580  -0.35819829  -2.08994503
H    0.71218194  -1.01702001  -2.66970363
O   -1.75953221   0.21845099   2.09909349
H   -1.85628103   1.16999588   2.06122750
H   -1.11450512   0.01565918   1.42156314
O   -3.30827031  -1.29340145   0.35453156
H   -2.91640302  -0.76802332   1.05213438
H   -3.55028422  -0.65690342  -0.31817296
O   -1.78125760   2.93370030   1.66164160
H   -2.33451007   3.69669256   1.82893283
H   -1.83512456   2.80108137   0.71520490
O    1.92668596   3.08109570  -1.00258354
H    1.54112625   3.23040315  -0.13928589
H    2.45885441   3.85982991  -1.16568356
O    0.04032826  -0.50867755   0.24479638
H    0.28130943  -1.42247073   0.39692116
H    0.86764186  -0.07334057   0.03920996
O    0.63478490  -3.13827940   0.45547173
H   -0.23402661  -3.42783958   0.17698776
H    1.18459913  -3.24857932  -0.32026668
O   -2.16259661   0.40104681  -3.68650934
H   -1.48232672   1.07391460  -3.65979496
H   -1.75853632  -0.36503654  -3.27897599
O   -0.91061701  -1.44190708  -2.11314310
H   -1.27344282  -2.28224877  -1.83311609
H   -0.72117927  -0.97847947  -1.29731221
O    3.67482909  -0.19558421   1.81043859
H    4.56180880  -0.40141689   2.10561947
H    3.14891826  -0.94491610   2.08999425
O    0.19104942   1.75226665  -2.72946851
H    0.72203229   0.99816136  -2.98562129
H    0.79100130   2.31181556  -2.23632087
O    0.15148735  -0.49895361   3.88915030
H   -0.23995128  -0.60951552   4.75562807
H   -0.58212902  -0.25839722   3.32331332
O   -1.89882274   2.42002263  -0.96520370
H   -1.19779549   2.18426952  -1.57283279
H   -2.61235239   1.81808466  -1.17681176
O   -1.94963771  -3.47434428  -0.51122852
H   -2.46715572  -2.75083260  -0.15776309
H   -2.55756913  -4.21318604  -0.53887074
