60
Energy:   -853.58707281
O    1.80236746  -2.38874619   2.44040569
H    1.32143273  -2.79864934   1.72143904
H    1.12568137  -1.97709099   2.97786990
O    2.69088448   0.36552089  -0.55552719
H    2.58911613   1.31633680  -0.51281704
H    3.11110305   0.13172232   0.27211187
O    1.35016152  -3.19202070  -2.31368184
H    0.47591643  -3.16111744  -2.70223346
H    1.77462186  -2.38820088  -2.61358010
O    0.78036636   3.22282932   1.77042238
H    1.11417312   2.56439027   2.37973586
H   -0.17111047   3.12619984   1.81025249
O    1.75013466   1.18230270   3.29316204
H    2.45614048   0.69483676   2.86870405
H    1.14688809   0.50791936   3.60546404
O   -3.09724108   0.67475681  -1.76295680
H   -2.30659077   0.48432023  -2.26777146
H   -2.98655480   1.58137593  -1.47656167
O    2.21684920  -0.65764962  -3.04839383
H    2.50629375  -0.31282202  -2.20367635
H    2.96284110  -0.51997925  -3.63215302
O   -1.65656882   0.13628485   1.92558264
H   -1.81222698   1.08060454   1.90937419
H   -1.00756846  -0.01180281   1.23775968
O   -3.47624516  -1.10144217   0.27733389
H   -2.94942888  -0.67408559   0.95265811
H   -3.47226486  -0.48573906  -0.45555470
O   -1.96306239   2.85501016   1.70283728
H   -2.55211335   3.41625266   2.20707698
H   -2.19511172   3.02276688   0.78946843
O    2.05511552   3.01852226  -0.56890938
H    1.60829802   3.12451662   0.27094249
H    2.59688064   3.80313288  -0.65322178
O    0.14101676  -0.44735840  -0.01620956
H    0.21520669  -1.39758918   0.07204663
H    1.04486698  -0.14241047  -0.09554043
O    0.33799080  -3.12643327   0.20350788
H   -0.57569872  -3.34522584   0.02038737
H    0.79184844  -3.27798460  -0.62551400
O   -1.20947845  -2.64878993  -3.05575213
H   -1.11320803  -1.69858407  -2.99193451
H   -1.68760398  -2.89527773  -2.26399990
O   -0.44615462   0.02013184  -2.59687365
H    0.39924892  -0.18607932  -2.99562375
H   -0.32193342  -0.15893738  -1.66481401
O    3.55246851  -0.41623981   1.92508865
H    2.98794874  -1.17218702   2.08662217
H    4.39861613  -0.66470861   2.29728390
O   -0.18180951   2.75328306  -2.16577008
H   -0.19439152   1.82986781  -2.41751959
H    0.62731341   2.85434725  -1.66443388
O   -0.03750215  -0.86402618   3.84855474
H   -0.55020652  -1.09679438   4.62262518
H   -0.68290907  -0.53353883   3.22368686
O   -2.51929822   3.25228442  -0.94886172
H   -1.66960061   3.16115044  -1.38006981
H   -2.98591814   3.90313185  -1.47316634
O   -2.29544279  -3.34318414  -0.60531624
H   -2.75484998  -2.57104020  -0.27520927
H   -2.94751072  -4.04310967  -0.57150052
