60
Energy:   -848.78191607
O    2.10463117  -2.03191090   2.55738376
H    1.60591160  -2.53900117   1.91678241
H    1.43924208  -1.57971430   3.07604304
O    2.22353458   0.61891425  -0.71642416
H    2.19436459   1.57562577  -0.72559083
H    2.79464154   0.40328161   0.02084870
O    0.88765545  -3.32715792  -2.18881865
H    1.04229921  -2.42927818  -2.48229628
H    1.42292035  -3.86569480  -2.77165770
O    1.00235994   3.72058222   1.81166008
H    1.38441769   3.03800754   2.36334434
H    0.06861276   3.51186014   1.78367520
O    2.05365379   1.59518384   3.14443286
H    2.67852995   1.09498251   2.61949451
H    1.45537927   0.93661416   3.49739947
O   -2.30270662  -0.88839411  -1.58932640
H   -2.24232283  -1.79009604  -1.90479318
H   -1.51258147  -0.76473819  -1.06335747
O    1.31939009  -0.76710410  -2.93814720
H    1.79873394  -0.29012636  -2.26068609
H    0.56783279  -0.20913488  -3.13830671
O   -1.59950168   0.35901686   2.07850189
H   -1.04499073   0.05486577   1.36000236
H   -1.71138229   1.29556298   1.91541926
O   -3.30615698  -1.49989986   0.90333340
H   -2.88152681  -0.82412034   1.43176798
H   -3.18921897  -1.20668515  -0.00031614
O   -1.63248269   3.00423731   1.30092249
H   -2.33381520   3.65322014   1.35736589
H   -1.41034919   2.97125241   0.37043845
O    1.90045204   3.35425169  -0.68062480
H    1.65499610   3.52976265   0.22776891
H    2.51188892   4.05605723  -0.90388648
O   -0.12483737  -0.56781766   0.03070306
H    0.15903583  -1.45979810   0.23074992
H    0.67557502  -0.11518105  -0.23517653
O    0.55879713  -3.13286446   0.54357650
H   -0.31553168  -3.50528659   0.65795625
H    0.78226571  -3.32065841  -0.36803037
O   -1.86894402  -3.50479999  -2.11215549
H   -1.99838376  -3.79348741  -1.20875261
H   -0.91994957  -3.52216249  -2.23600997
O   -0.89284117   0.88707340  -3.09036709
H   -1.53262119   0.25793161  -2.75705944
H   -0.75430581   1.49575097  -2.36472846
O    3.61402802  -0.04896643   1.55783777
H    4.53081415  -0.23163495   1.76367081
H    3.13675063  -0.80723788   1.89467978
O   -1.48257855   3.47536625  -3.89376832
H   -1.35355530   2.52716103  -3.91594273
H   -1.98923818   3.66714299  -4.68291314
O    0.28036922  -0.39982707   3.88102893
H   -0.11823384  -0.48667607   4.74694157
H   -0.43933035  -0.12742338   3.31176571
O   -0.74378497   2.96036259  -1.28696672
H    0.18435070   3.17619384  -1.19634174
H   -1.01634546   3.40511452  -2.08954901
O   -2.08742693  -3.89440530   0.62876276
H   -2.55870733  -3.07790795   0.79446944
H   -2.61714872  -4.56804435   1.05518638
