60
Energy:   -855.08678876
O    2.31404458  -2.37545035   1.71258205
H    1.68564850  -2.75154093   1.09621682
H    1.77464145  -2.02547000   2.42165881
O    2.47361481   0.61021042  -1.04398579
H    2.34364731   1.54842289  -0.90579155
H    3.09417409   0.35100200  -0.36284776
O    0.85869443  -3.09982740  -2.95214062
H    1.11141757  -2.19349029  -3.12796984
H    1.34797461  -3.61426530  -3.59416117
O    1.22720048   3.38803777   2.03567068
H    1.38561557   4.05048325   2.70820507
H    1.66372186   2.60244113   2.36509268
O    2.44412417   1.14176367   2.88890737
H    3.05690659   0.69958879   2.30136083
H    1.90822888   0.43649643   3.25173820
O   -3.62091397   0.74309632  -1.08281830
H   -4.31245125   0.85590041  -1.73495577
H   -2.82511732   0.60918537  -1.59760699
O    1.31993866  -0.47647750  -3.30864671
H    1.86516011  -0.08058350  -2.62876925
H    0.45497618  -0.08740754  -3.17943242
O   -1.24171341  -0.08287285   2.22115459
H   -1.37068566   0.85142336   2.38452102
H   -0.75534779  -0.11757675   1.39745806
O   -3.31123846  -1.22666581   0.82817802
H   -2.69989002  -0.82132201   1.44314252
H   -3.53662515  -0.52563983   0.21662649
O   -1.38573302   2.59449209   2.43926512
H   -1.87812034   2.84407000   1.65728210
H   -0.50095430   2.92364066   2.28096264
O    1.69893536   3.20352007  -0.64847166
H    1.51043970   3.31468572   0.28337781
H    2.09172901   4.03482354  -0.91470376
O    0.12332873  -0.36083359  -0.10377759
H    0.23749219  -1.31055169  -0.13890726
H    0.98010271  -0.00712887  -0.34265655
O    0.41561977  -3.04894265  -0.22247412
H   -0.50878355  -3.29487210  -0.18741625
H    0.66547356  -3.18432440  -1.13651828
O   -1.80480504  -2.31730984  -2.89198314
H   -2.10638242  -2.73352680  -2.08448926
H   -0.94351865  -2.70251110  -3.05334481
O   -1.22001174   0.26135740  -2.34424344
H   -1.50920283  -0.59343817  -2.66350022
H   -0.78643322   0.07258016  -1.51201471
O    3.93567766  -0.32070904   1.08243787
H    4.84343739  -0.60352046   1.19299021
H    3.41606261  -1.10147588   1.27384111
O   -0.74881421   3.04983134  -1.94029028
H   -0.84461157   2.15316842  -2.26130480
H    0.11630290   3.06706878  -1.53101396
O    0.85533192  -0.99926543   3.63613690
H    0.57155058  -1.24319331   4.51715857
H    0.05807815  -0.69419916   3.20306318
O   -2.61383897   3.06144898   0.05520624
H   -1.98307411   3.21981036  -0.64713927
H   -3.10940575   2.29582177  -0.23541445
O   -2.31572271  -3.39858166  -0.39078512
H   -2.69590452  -2.65017614   0.06919621
H   -2.89438612  -4.13060681  -0.17743168
