60
Energy:   -850.55424287
O    2.09667077  -2.62042063   2.02303389
H    1.72668861  -2.96575837   1.21057657
H    1.33685902  -2.45289001   2.58057444
O    2.88146509   0.44786627  -0.47601053
H    2.77725779   1.39757427  -0.41746646
H    3.23825194   0.19268905   0.37476533
O    1.45969587  -2.98691140  -2.99669473
H    1.75692345  -2.07726930  -3.01764396
H    2.01447473  -3.43541861  -3.63489027
O    0.32485771   2.41273839   1.68551714
H    0.61930202   1.90471940   2.44146099
H   -0.59016634   2.61882619   1.87654242
O    1.32965718   0.66472200   3.48757684
H    2.14756943   0.38031277   3.07970087
H    0.83204745  -0.14281767   3.61601392
O   -3.18999147   1.05470865  -1.71554199
H   -3.75461350   0.78138355  -2.43854074
H   -2.30385143   0.84513974  -2.01061579
O    2.03594812  -0.36482169  -2.97455193
H    2.48026859  -0.09315217  -2.17142875
H    1.17675095   0.05441041  -2.92704919
O   -1.60973994  -1.41572795   1.34059487
H   -2.34949291  -0.80893675   1.31227809
H   -0.89557786  -0.94363252   0.91242402
O   -3.47684545   0.49586899   0.99809662
H   -3.16309158   1.31728057   1.37634704
H   -3.48082204   0.65255803   0.05381670
O   -2.37338327   2.90491021   1.80821789
H   -2.86614866   3.55642198   2.30716331
H   -2.40272907   3.22154294   0.90538104
O    2.09961148   3.08533692  -0.26236916
H    1.50414907   2.96994435   0.47813130
H    2.53898070   3.91798938  -0.08952119
O    0.23904770   0.17104926   0.15150237
H    1.17315349   0.06658241  -0.02950840
H    0.18554477   0.96194407   0.68802327
O    0.91111811  -3.44918463  -0.31100353
H   -0.04033605  -3.52388542  -0.38439725
H    1.21439641  -3.35017677  -1.21347323
O   -1.16429553  -2.09990297  -2.95627058
H   -1.51336954  -2.54786992  -2.18574816
H   -0.31073663  -2.50700280  -3.10438801
O   -0.58816659   0.46398618  -2.38745082
H   -0.82163557  -0.41766308  -2.67799972
H   -0.32977628   0.35452779  -1.47230867
O    3.50272514  -0.34469053   2.07581444
H    4.35457691  -0.53563115   2.46839831
H    3.06289495  -1.19373129   2.03209897
O   -0.03324022   3.23768471  -2.03011943
H   -0.13420594   2.34788965  -2.36820598
H    0.76891783   3.20673426  -1.50875930
O   -0.05973312  -1.74076334   3.53957133
H   -0.54895432  -2.16291890   4.24574351
H   -0.69516822  -1.64749610   2.82981412
O   -2.44998596   3.55881692  -0.79020544
H   -1.60069230   3.62412249  -1.22686013
H   -2.86392812   2.79087487  -1.18409469
O   -1.84967825  -3.31389467  -0.56592554
H   -1.86086756  -2.65635536   0.12959491
H   -2.51539945  -3.95035093  -0.30521388
