60
Energy:   -847.13135540
O    1.12716601  -2.38284525   3.04934654
H    0.87146218  -2.73738709   2.19779063
H    0.41823820  -1.78339799   3.28240485
O    1.96608181   2.50980256  -1.57531353
H    2.35402461   1.88690675  -0.96071363
H    1.51446167   3.14528688  -1.01994808
O    1.76246533  -4.07429625  -1.67676705
H    1.01650368  -3.83840124  -2.22824379
H    2.33699636  -4.57838892  -2.25299316
O    2.01888477   3.02897521   2.30464458
H    2.67804900   3.60601341   2.69034041
H    1.80347757   2.41040102   3.00263997
O    1.62333964   1.05527970   4.08332110
H    2.26362822   0.42128201   3.76035160
H    0.78269429   0.60232167   4.01716775
O   -3.04899547   0.00012668  -2.68164295
H   -3.47096041  -0.34242092  -3.46957606
H   -2.12825513  -0.24342541  -2.77730614
O    0.26489933   2.03358098  -3.59869375
H    0.90051197   2.20387854  -2.90354832
H    0.61900194   2.48664884  -4.36392097
O   -1.69800982   0.48985524   1.24966076
H   -1.83410207   1.40381233   0.99987446
H   -0.96060710   0.20133494   0.71186422
O   -3.33212955  -1.17228365  -0.21006495
H   -2.86878961  -0.56845194   0.37039626
H   -3.36050865  -0.72029101  -1.05334968
O   -1.97174158   3.05901249   0.30978387
H   -2.62287200   3.73364358   0.50248551
H   -2.04867748   2.91359704  -0.63317269
O    2.56902336   0.88503149   0.66003890
H    2.40216525   1.66840469   1.18417309
H    2.94300427   0.25756596   1.27863177
O    0.35126294  -0.44159136  -0.23863808
H    0.47671239  -1.35358939   0.02357152
H    1.15213961   0.00116189   0.04207168
O    0.44529770  -3.05567949   0.48172248
H   -0.43802681  -3.28402672   0.19219320
H    1.02251010  -3.46615896  -0.16214420
O   -0.49074353  -3.28441449  -2.95367322
H   -0.41556728  -2.33587447  -3.05784719
H   -1.10740350  -3.39829554  -2.23049037
O   -0.40537476  -0.52462183  -2.84790508
H   -0.09256092   0.28812831  -3.24516642
H   -0.09117037  -0.48664211  -1.94454193
O    3.25453240  -0.77720196   2.77800241
H    2.55045203  -1.42024152   2.86168511
H    4.03660469  -1.23644534   3.08409112
O    0.58871007   4.05372531   0.18710958
H   -0.31207813   3.73960453   0.26547159
H    1.01081068   3.77752493   1.00060590
O   -0.70505942  -0.37775765   3.63041487
H   -1.44309871  -0.46793018   4.23324052
H   -1.09403555  -0.04004938   2.82364195
O   -2.15066788   2.57891223  -2.32925017
H   -1.32236785   2.50224196  -2.80282443
H   -2.59148477   1.74270382  -2.47980851
O   -2.02915659  -3.48591233  -0.63932176
H   -2.52133504  -2.68226840  -0.47154617
H   -2.64566312  -4.19074437  -0.44091976
