60
Energy:   -852.62596038
O    1.68178236  -2.62373721   2.24186983
H    1.33518584  -3.01890746   1.44190535
H    0.95306110  -2.11088845   2.59141714
O    2.92224515   0.25387490  -0.43591184
H    2.84007305   1.20516651  -0.36865223
H    3.29809330  -0.01441819   0.40253245
O    1.27791268  -3.28318780  -2.83562768
H    1.66269579  -2.40888837  -2.89706315
H    1.83254148  -3.82918096  -3.39286212
O    0.98276033   3.12610908   1.97066131
H    1.30696369   2.43972769   2.55376046
H    0.02962784   3.06182276   2.03097363
O    1.82169552   0.97447089   3.39515578
H    2.53927609   0.46883092   3.01353005
H    1.05035640   0.41890797   3.28282743
O   -3.06925500   0.93260800  -1.74218975
H   -3.59606050   0.93854117  -2.54135970
H   -2.18270705   0.72967580  -2.04065769
O    2.09627209  -0.72312404  -2.89781631
H    2.55636232  -0.39141271  -2.12676741
H    1.27325087  -0.23467716  -2.91477387
O   -2.73838204   0.51725282   2.61188435
H   -3.37691476   0.62157073   3.31731017
H   -2.42543689   1.40502596   2.43822941
O   -3.29240586  -0.91332241   0.28957569
H   -3.12927810  -0.43523844   1.10262975
H   -3.30002886  -0.23786410  -0.38860557
O   -1.77806713   3.02366918   2.07517273
H   -2.00060774   3.87718866   2.44694150
H   -1.93476838   3.12270828   1.13609455
O    2.29582088   2.91452429  -0.35417468
H    1.82976764   3.02033893   0.47518018
H    2.84968628   3.69249622  -0.41917197
O    0.36442040  -0.49636362   0.00156671
H    0.39954565  -1.44893592  -0.08563470
H    1.27424204  -0.21330462  -0.08972419
O    0.45215027  -3.19858749  -0.20121234
H   -0.49102967  -3.32563802  -0.30368968
H    0.81209408  -3.35902424  -1.07352671
O   -1.26843641  -2.21692064  -3.13054729
H   -1.71684418  -2.59170304  -2.37245727
H   -0.44128956  -2.69598164  -3.18114855
O   -0.49981717   0.26543658  -2.42289424
H   -0.79994919  -0.56186256  -2.79936302
H   -0.25210078   0.04466618  -1.52504744
O    3.58380391  -0.70716977   2.06252749
H    4.38472324  -1.02399854   2.48011533
H    2.97306320  -1.44140786   2.12673084
O    0.09414352   3.01447918  -2.01593724
H   -0.01375997   2.11646918  -2.32925292
H    0.89144563   2.98988245  -1.48684726
O   -0.24626313  -0.64829883   2.63787642
H   -1.13908697  -0.32736614   2.76476075
H   -0.07625189  -0.52204638   1.70439458
O   -2.19769237   3.26265918  -0.55844896
H   -1.39115933   3.34244685  -1.06773301
H   -2.65222406   2.51393699  -0.94451615
O   -2.24954745  -3.18573592  -0.72481770
H   -2.62003543  -2.40089014  -0.32110046
H   -2.91297180  -3.86201786  -0.58791365
