60
Energy:   -849.12897561
O    1.73565238  -2.53919719   2.00015253
H    1.25438684  -2.92053840   1.26585408
H    1.05589657  -2.19800958   2.58131936
O    2.11790243   0.54913646  -0.82586316
H    2.17108973   1.50449896  -0.79968199
H    2.61797749   0.25993147  -0.06263498
O    0.65333392  -2.96046164  -2.94772815
H    0.85671088  -2.03571360  -3.08812303
H    1.20200119  -3.42543581  -3.57938872
O    2.43545928   4.60400755   1.44871648
H    2.98706560   5.07197178   2.07559110
H    1.74793833   4.20711183   1.98352539
O    1.65826570   0.90671254   3.30666262
H    2.28484517   0.54323195   2.68095351
H    1.05967884   0.18373496   3.49435660
O   -2.38370000  -0.40518101  -1.99335534
H   -2.36480783  -1.24395293  -2.45415531
H   -1.63648792  -0.44250401  -1.39626829
O    1.19907489  -0.33403456  -3.27112194
H    1.65747792  -0.02809884  -2.48849697
H    0.49672902   0.30294615  -3.40226193
O   -1.84285181   0.01901325   1.85360751
H   -1.25531718  -0.18200408   1.12516607
H   -1.91895717   0.97313736   1.84428039
O   -3.58802793  -1.43510310   0.26844668
H   -3.40269714  -0.97527551  -0.55035912
H   -3.14932295  -0.91401208   0.94093009
O    0.53925911   3.35776570   2.89309381
H    0.92977218   2.50931882   3.10254380
H   -0.27782701   3.14152757   2.44382420
O    2.08525750   3.29552219  -0.88893495
H    2.53084271   3.82914142  -1.54691381
H    2.23933464   3.75452649  -0.06321881
O   -0.30103228  -0.59403644  -0.26247451
H   -0.05097182  -1.51741381  -0.22967467
H    0.51762874  -0.12975712  -0.43703305
O    0.24197683  -3.24283453  -0.23042302
H   -0.66118538  -3.55935312  -0.21182597
H    0.48737697  -3.27164224  -1.15518285
O   -2.10693688  -2.90484377  -2.97383081
H   -2.29843687  -3.35499973  -2.15107981
H   -1.15911122  -2.98838691  -3.07813282
O   -0.95302697   1.43282576  -3.33242722
H   -1.42507198   1.76903393  -4.09424703
H   -1.55653095   0.80597574  -2.93358659
O    3.27566845  -0.39786093   1.47506865
H    4.17249243  -0.60637483   1.73671833
H    2.78496750  -1.20362404   1.63690260
O   -0.64383879   2.91690320  -1.00569878
H   -0.76481621   2.44926894  -1.83208520
H    0.29311658   3.11018573  -0.97426097
O   -0.12601761  -1.18743880   3.56857067
H   -0.56921890  -1.38125173   4.39454949
H   -0.79524181  -0.76434879   3.03064348
O   -1.74819011   2.74069599   1.46899825
H   -1.38674609   2.78868967   0.58396341
H   -2.42140402   3.42080822   1.49049764
O   -2.45769018  -3.80156684  -0.37111356
H   -2.89809053  -3.00263428  -0.08130992
H   -3.03124515  -4.51066758  -0.08052331
