60
Energy:   -858.02879917
O    0.94591031  -2.12952223   2.91551936
H    0.70068532  -2.59306256   2.11475291
H    0.13875034  -1.70233378   3.20228522
O    2.67502168   0.45106726   0.33433378
H    2.54344238   1.39663814   0.26494757
H    2.83344132   0.29853382   1.26592845
O    2.11030774  -3.48830495  -1.64854352
H    2.47134251  -2.61196348  -1.78237692
H    2.81938978  -4.08073161  -1.89847384
O    0.13713087   3.59644344   1.88988297
H    0.29743703   2.86522238   2.48641423
H   -0.03359640   4.34233191   2.46497813
O    0.62799407   1.51664009   3.52755890
H    1.43529474   1.01271852   3.42479450
H   -0.05071843   0.85649054   3.66821366
O   -2.45742474   0.54676747  -2.69372899
H   -1.53498366   0.34022174  -2.84430503
H   -2.45397444   1.45580388  -2.39394114
O    2.85457631  -0.93658574  -2.04670212
H    2.97093545  -0.45027208  -1.23049661
H    2.06910201  -0.55809623  -2.44168017
O   -2.21262205   0.15117878   1.25857825
H   -2.37357907   1.09074288   1.17172215
H   -1.38743144   0.00528560   0.79596881
O   -3.35477548  -1.22457869  -0.82754354
H   -3.11902491  -0.74393504  -0.03404798
H   -3.16641903  -0.61578128  -1.54176998
O   -2.32916001   2.82876108   0.91492046
H   -1.47566418   3.13964207   1.21679747
H   -2.32580427   2.99583285  -0.02758026
O    1.96839578   3.06554392  -0.06440325
H    1.32521491   3.29733193   0.60554043
H    2.53646770   3.83335713  -0.12756179
O    0.12500694  -0.41296081  -0.00075308
H    0.17551913  -1.35913752   0.13500404
H    1.00321558  -0.09355482   0.20651790
O    0.27391777  -3.08858440   0.37863482
H   -0.53813160  -3.33800800  -0.06249501
H    0.96607771  -3.33841129  -0.23351957
O   -0.10866311  -2.73054342  -3.13469308
H   -0.83205654  -3.02182073  -2.57963334
H    0.66958328  -3.12552197  -2.74155652
O    0.26087426  -0.08754835  -2.66954975
H    0.10517701  -0.96491539  -3.01914563
H    0.14896217  -0.18275057  -1.72369348
O    2.76755454  -0.14981581   3.00695650
H    3.47118184  -0.41069082   3.60116580
H    2.18167034  -0.90635292   2.98199347
O    0.46989445   2.71629659  -2.37289566
H    0.53908856   1.79536362  -2.62454322
H    1.04085719   2.79995106  -1.60919721
O   -1.21381350  -0.54665748   3.65393874
H   -1.92922031  -0.72002399   4.26579575
H   -1.65008036  -0.31413836   2.83428153
O   -2.12633040   3.14471198  -1.82032758
H   -1.19625769   3.07365731  -2.03514803
H   -2.46434917   3.79965559  -2.43108450
O   -1.95390367  -3.47816795  -1.20089739
H   -2.48392455  -2.69192752  -1.06999395
H   -2.59257976  -4.17977695  -1.32766296
