60
Energy:   -851.10859423
O    1.84454428  -2.52823502   2.33852527
H    1.36053821  -2.85739566   1.58114608
H    1.18636909  -2.07510023   2.86550358
O    2.49760500   0.68998791  -0.03368746
H    2.16415197   1.46514009   0.41817538
H    3.03919303   0.24617069   0.61895374
O    1.56106512  -2.90509669  -2.52820715
H    1.82049359  -1.98501620  -2.57699868
H    2.21382005  -3.36673029  -3.05455045
O    1.25510418   2.66859477   1.44084043
H    1.56916808   2.23015455   2.23164122
H    0.31244804   2.76347199   1.57733055
O    2.08475176   1.03943769   3.45218820
H    2.78399684   0.50534751   3.07531175
H    1.40080932   0.41095262   3.68340477
O   -3.36446448   0.59969556  -1.72438589
H   -3.90937351   0.68780270  -2.50639812
H   -2.47215782   0.51955209  -2.06142846
O    2.04017666  -0.25495837  -2.61703443
H    2.35215070   0.16038440  -1.81304784
H    1.16898360   0.11626849  -2.75648019
O   -1.65854147   0.11416502   2.02766159
H   -1.70815033   1.06915775   2.06961026
H   -1.05065146  -0.06326963   1.30987435
O   -3.35552932  -1.25540665   0.31312355
H   -2.91516532  -0.78343271   1.01991347
H   -3.47986137  -0.59923517  -0.37259680
O   -1.47019603   2.85099477   1.83236180
H   -1.81625279   3.58029992   2.34674548
H   -1.88745410   2.94220966   0.97573621
O    1.44249082   3.82003221  -1.06294051
H    1.41112400   3.54495177  -0.14665522
H    2.33222568   4.15176408  -1.18359578
O    0.04180750  -0.42653652   0.01922038
H    0.18804745  -1.37249033   0.01508330
H    0.92015030  -0.04807881   0.05815013
O    0.45502386  -3.09611608  -0.00582493
H    0.92219629  -3.15947831  -0.83887174
H   -0.44611934  -3.34032525  -0.21685733
O   -1.07281383  -2.28820211  -3.14618111
H   -1.54276177  -2.71087545  -2.42734314
H   -0.17670756  -2.61664438  -3.07303006
O   -0.73013359   0.30031452  -2.46299890
H   -0.88689266  -0.55695829  -2.85890517
H   -0.49043516   0.10598990  -1.55690042
O    3.74501079  -0.65395974   2.01813927
H    4.60396399  -1.02607536   2.21804225
H    3.13648808  -1.38549695   2.12199139
O   -0.76167458   3.14074917  -2.54307411
H   -0.63834965   2.20055698  -2.67369364
H    0.03937409   3.42939709  -2.10576957
O    0.12327549  -0.90012455   3.79425594
H   -0.32535337  -1.13372482   4.60690279
H   -0.56705073  -0.55005965   3.23110755
O   -2.62984367   3.00171460  -0.57976021
H   -2.00828497   3.22433321  -1.27282412
H   -3.05754568   2.20295849  -0.88845342
O   -2.15541819  -3.37911567  -0.82948583
H   -2.60610081  -2.65071521  -0.40222738
H   -2.77442092  -4.10744152  -0.77840820
