60
Energy:   -846.20848974
O    1.92252615  -2.35018995   2.64794537
H    1.71775670  -2.83936001   1.85106773
H    1.10026934  -1.92068560   2.88385131
O    2.65232624   1.77320652  -2.36805408
H    2.92627228   1.49411445  -1.49438764
H    1.87895072   2.31608482  -2.21506614
O    1.39726994  -2.89672232  -2.51203651
H    0.47005976  -2.95593761  -2.74226827
H    1.69737302  -2.08979881  -2.93041964
O    0.64769548   2.59682659   1.23191917
H    0.98301977   2.28007631   2.07064363
H   -0.25959002   2.84205504   1.41337959
O    1.56454302   1.33724742   3.43020865
H    2.38932266   0.86681210   3.30912605
H    0.88981134   0.66289897   3.35132146
O   -3.20531707   0.68051662  -1.79220273
H   -3.75305401   0.42743959  -2.53528289
H   -2.31534807   0.45353349  -2.06176843
O    1.71133453  -0.36729650  -3.69288621
H    2.16161644   0.36507326  -3.27203874
H    1.98184528  -0.32034397  -4.60986563
O   -2.72352572   0.64335807   2.57010180
H   -3.38039473   0.76600783   3.25545717
H   -2.50315166   1.53088025   2.28730946
O   -3.07808038  -1.02205924   0.38423470
H   -3.00073201  -0.46188212   1.15653689
H   -3.23327891  -0.41410631  -0.33863355
O   -2.01732962   3.14670842   1.67646061
H   -2.17793799   4.02437027   2.02308212
H   -2.26622988   3.20375862   0.75395003
O    2.74288069   0.96000891   0.27901709
H    2.21070845   1.65492755   0.66646080
H    3.20570228   0.57032739   1.02075582
O    0.52450844  -0.58740000   0.12102537
H    0.76565882  -1.51370325   0.11465149
H    1.36023627  -0.12208304   0.15667602
O    0.99752362  -3.23427386   0.16767898
H    0.05897474  -3.41833702   0.12922634
H    1.28608743  -3.26710883  -0.74439812
O   -1.30724756  -2.57971174  -2.74977419
H   -1.14756180  -1.64648145  -2.60901364
H   -1.54935817  -2.91466003  -1.88639482
O   -0.56252418   0.04675036  -2.23062314
H    0.16323081  -0.07348349  -2.84304077
H   -0.21129082  -0.23127154  -1.38470896
O    3.65740004  -0.27944841   2.57071039
H    3.11927126  -1.07017532   2.60812998
H    4.49907883  -0.54417803   2.94182612
O    0.14800124   2.64232197  -1.52323413
H   -0.09832083   1.74224566  -1.73635363
H    0.37244809   2.61587872  -0.59309640
O   -0.25282846  -0.57990152   2.72769031
H   -1.14076878  -0.22942418   2.79811389
H   -0.05479796  -0.54557619   1.79182839
O   -2.48662788   3.22026751  -0.95856936
H   -1.59209772   3.20449063  -1.29886149
H   -2.87896215   2.40736817  -1.27716052
O   -1.75614988  -3.33175821  -0.13622448
H   -2.21433700  -2.53070052   0.11794671
H   -2.35159850  -4.03835936   0.11355063
