60
Energy:   -846.98628385
O    2.15827643  -2.51554212   2.08635163
H    1.70258233  -2.93335834   1.35559563
H    1.47402316  -2.03575466   2.55307780
O    2.52805337   0.53195958  -0.81083317
H    2.47609531   1.48739635  -0.78489482
H    3.05420872   0.29937299  -0.04578685
O    1.19577240  -3.35220864  -2.79905740
H    1.51128485  -2.46399579  -2.96567578
H    1.77524267  -3.91334678  -3.31439227
O    1.06264741   3.12939774   1.81199276
H    1.49964743   2.55138830   2.43742694
H    0.13079726   3.03689543   2.01031190
O    2.21709862   1.22675001   3.44726470
H    2.41624102   1.20097287   4.38316517
H    1.50927261   0.59224226   3.33495213
O   -3.36780918   0.65262969  -1.63043158
H   -4.00159871   0.64167189  -2.34766418
H   -2.51945629   0.53558643  -2.05801794
O    1.79804732  -0.75310110  -3.13883406
H    2.25990743  -0.32175855  -2.41990381
H    0.94148379  -0.32660482  -3.16396755
O   -2.25059512   0.28218533   3.07528366
H   -2.58397585  -0.11616773   2.27129114
H   -2.10559987   1.20015194   2.84605557
O   -2.55156287  -0.81981706   0.54014484
H   -1.62907863  -0.58548010   0.43845476
H   -3.00271617  -0.31902429  -0.13948679
O   -1.64565376   2.83755692   2.24896053
H   -2.06775700   3.58327512   2.67553417
H   -1.94600154   2.87886049   1.34104144
O    1.94948167   3.19758091  -0.72543401
H    1.63559582   3.22992931   0.17825903
H    2.50405424   3.97263165  -0.81475076
O    0.18107645  -0.48069924   0.03493347
H    0.35742136  -1.41846383  -0.04077574
H    1.01390986  -0.06162355  -0.18185199
O    0.54833470  -3.14937007  -0.12934504
H   -0.37224034  -3.41073164  -0.15087545
H    0.87035476  -3.33196211  -1.01206531
O   -1.43573785  -2.46607147  -2.93106591
H   -1.81766356  -2.86025406  -2.14685632
H   -0.59021445  -2.90326918  -3.03196285
O   -0.79379594   0.10887033  -2.46702833
H   -1.06744263  -0.75927896  -2.76311303
H   -0.44459213  -0.03648336  -1.58773268
O    3.60972513  -0.23809836   1.53675344
H    3.28839599   0.31588666   2.24814647
H    3.26690879  -1.10903004   1.73721993
O   -0.41574370   2.95035700  -2.12809172
H   -0.40264419   2.05379892  -2.46311987
H    0.43945382   3.06412862  -1.71345324
O    0.30252555  -0.56177723   2.79468164
H   -0.58928229  -0.33602339   3.05915436
H    0.30686068  -0.44869711   1.84419443
O   -2.44634951   2.91183665  -0.31780397
H   -1.74197612   3.08966268  -0.94107588
H   -2.95396770   2.20897670  -0.72344360
O   -2.20182814  -3.34840160  -0.39987292
H   -2.43907428  -2.50767549  -0.00856011
H   -2.84176201  -3.96653528  -0.04684709
