7
Energy:    -40.23492023
C   -0.10331843  -0.04161173   0.03509969
H    0.73312461  -0.46304996   0.55245162
H    0.23612107   0.44361171  -0.85610070
H   -0.79207176  -0.81897195  -0.22225033
C   -0.80442162   0.98540472   0.94355527
N   -1.32642481   1.75006515   1.61994174
Cl   2.05699094  -1.85544793  -2.07269729
