7
Energy:    -39.21169306
C    0.17833586  -0.04311203   0.11353022
H   -0.71246151  -0.33246997  -0.40382092
H   -0.07566414   0.60535678   0.92585484
H    0.66944816  -0.91469746   0.49306500
C    1.11915538   0.69446954  -0.85725917
N    1.81963829   1.24363254  -1.58005600
Cl  -2.99845202  -1.25317940   1.30868603
