7
Energy:    -39.25100628
C    0.13421432   0.06629631   0.11138788
H    0.21095332  -0.98885076   0.27162505
H    1.11449396   0.49350031   0.07333948
H   -0.37138494   0.25077218  -0.81340244
C   -0.65941877   0.70455873   1.26653618
N   -1.25031468   1.17977412   2.12659659
Cl   0.82145679  -1.70605089  -3.03608274
