7
Energy:    -39.46105745
C   -0.06104681   0.19352897  -0.04142013
H   -0.34711489  -0.20193590  -0.99361378
H   -0.73538755   0.97629217   0.23687006
H   -0.09502393  -0.58425245   0.69261033
C    1.37012817   0.75553374  -0.12795818
N    2.43570299   1.17397183  -0.19238970
Cl  -2.56725798  -2.31313837   0.42590140
