7
Energy:    -39.77245244
C   -0.08305309   0.13969852   0.00055723
H    0.79239613  -0.16781555  -0.53228792
H   -0.14795142  -0.40049279   0.92190442
H   -0.02604592   1.18839460   0.20521746
C   -1.33169037  -0.14957834  -0.85315456
N   -2.26135759  -0.36495812  -1.48878180
Cl   3.05770226  -0.24524832   1.74654516
