7
Energy:    -40.43046225
C    0.04781412  -0.00822177  -0.04060001
H   -0.05050146  -1.02333288   0.28310303
H   -0.86212002   0.51889167   0.15706224
H    0.85244033   0.45844757   0.48826244
C    0.34088030   0.02247516  -1.55214555
N    0.55908139   0.04533041  -2.67755991
Cl  -0.88759466  -0.01359017   3.34187775
