7
Energy:    -39.54764465
C    0.10825209  -0.01212610  -0.06594465
H   -0.34368963   0.83003614   0.41510798
H    1.12128568  -0.11026073   0.26425474
H   -0.43557333  -0.89934742   0.18303594
C    0.08340126   0.19396617  -1.59188973
N    0.06489869   0.34741122  -2.72802521
Cl  -0.59857475  -0.34967928   3.52346094
