7
Energy:    -39.60113492
C   -0.18599764   0.01986934   0.05439146
H   -0.12940909   0.93899546  -0.49049853
H    0.78899327  -0.24772299   0.40465731
H   -0.84434258   0.14013167   0.88926750
C   -0.72317728  -1.09094209  -0.86709429
N   -1.12313195  -1.91799169  -1.55318232
Cl   2.21706528   2.15766030   1.56245888
