7
Energy:    -39.31215884
C    0.18981170  -0.15663992  -0.00639025
H    0.31562003   0.84805187  -0.35231925
H   -0.74068739  -0.54374509  -0.36586224
H    0.99285164  -0.76256255  -0.37092242
C    0.19218766  -0.17342734   1.53351641
N    0.19395667  -0.18592634   2.68004692
Cl  -1.14374031   0.97424938  -3.11806918
