7
Energy:    -39.51408466
C    0.09452399   0.04102158  -0.14421662
H   -0.37274026  -0.13357088   0.80239934
H    0.15282561   1.09413532  -0.32435953
H    1.08040520  -0.37478017  -0.13741655
C   -0.73580897  -0.62494982  -1.25715385
N   -1.35402960  -1.12079579  -2.08578620
Cl   1.13482403   1.11893976   3.14653340
