7
Energy:    -39.93438847
C    0.14560859   0.03061526   0.06859281
H    0.07411816  -0.92201474  -0.41336713
H   -0.82884285   0.34955202   0.37457127
H    0.78008690  -0.05035911   0.92636872
C    0.73780958   1.05920421  -0.91268327
N    1.17873014   1.82503544  -1.64328792
Cl  -2.08751051  -2.29203308   1.59980553
