7
Energy:    -39.57331523
C    0.03572982  -0.00325409  -0.16677774
H   -0.06839592   0.04319436   0.89713041
H    0.19124438   0.98230105  -0.55329473
H    0.87322196  -0.62059538  -0.41656914
C   -1.24359655  -0.60005888  -0.78220286
N   -2.19611319  -1.04440717  -1.24041483
Cl   2.40790949   1.24282010   2.26212888
