7
Energy:    -39.28324312
C    0.01982929   0.11694954   0.16143587
H   -0.40591041  -0.45686940  -0.63504245
H   -0.75026809   0.67872799   0.64749562
H    0.48134286  -0.54095601   0.86788091
C    1.07670811   1.08117276  -0.40854724
N    1.86360244   1.79908078  -0.83292557
Cl  -2.28530420  -2.67810567   0.19970286
