64
Energy:  -1783.84446491
O   -0.14100196  -1.31607036  -2.38765166
H   -0.04692792  -0.81294115  -1.57879882
H   -0.74316508  -2.02471643  -2.16082091
O    1.13529805  -0.60352191   2.81674145
H    0.65623115  -1.38771269   3.08464360
H    0.95945886  -0.52344299   1.87924489
O    2.52620476  -2.65502591   0.03578424
H    3.38709389  -2.30418205   0.26384200
H    1.94050963  -1.89902110   0.07640190
O   -1.96514839   2.21345674   1.06083812
H   -1.37688481   1.62540405   0.58715907
H   -2.80561578   1.75547058   1.07059027
O    2.32456850  -2.42088578  -2.70734353
H    2.47579557  -2.65145576  -1.79071945
H    1.43866845  -2.05862162  -2.72067118
O   -0.79036817   1.34922552   3.46177187
H   -0.05904936   0.78433670   3.21216165
H   -1.08577155   1.73737226   2.63817561
O    2.14114378   2.11315645   0.02168074
H    2.67235684   1.73821317  -0.68078782
H    1.37785484   1.53833783   0.07829691
O   -1.73931129   4.46452849  -0.47619274
H   -0.78940142   4.52520843  -0.57729181
H   -1.87042176   3.72973658   0.12307577
O   -3.07602446  -0.57421872  -1.21677718
H   -2.28372689  -0.54365453  -0.68052888
H   -2.80980191  -0.20644995  -2.05945359
O   -1.10297528   2.69477124  -2.49479669
H   -1.58424849   3.30115938  -1.93185675
H   -0.78398689   2.01646903  -1.89949478
O   -1.99088936   0.31912174  -3.57318488
H   -1.27977612  -0.23006890  -3.24312511
H   -1.74617837   1.20830724  -3.31686957
O    4.65338503  -0.90274268   0.31578521
H    4.16661995  -0.59386819  -0.44834053
H    4.31905242  -0.37651168   1.04210091
O    2.94618397   0.01579004  -1.63107104
H    2.85482358  -0.72183636  -2.23422312
H    2.20529134  -0.07143237  -1.03131925
O    0.89248871   4.16959063  -1.29353756
H    0.36349618   3.65542256  -1.90348013
H    1.34821461   3.51691629  -0.76197200
O   -0.15688320  -3.18126113   0.57415328
H   -0.35890168  -2.24969561   0.48694053
H    0.78335003  -3.23983158   0.40455723
O   -1.98918468  -3.13560012  -1.52535016
H   -2.47732398  -2.32943269  -1.35788091
H   -1.41944476  -3.23403753  -0.76250132
O   -0.55640627  -2.73475334   3.24353375
H   -1.25602926  -2.08790106   3.15220114
H   -0.37894836  -3.02430692   2.34860400
O    3.41621120   0.77158014   2.10300504
H    2.70467045   0.24091739   2.46124887
H    2.99932465   1.30850044   1.42909552
O   -2.30199268  -0.72465729   2.62515732
H   -1.87588347   0.00227411   3.07928673
H   -1.85167611  -0.77800723   1.78218602
O   -4.14915606   0.56115255   1.06021080
H   -3.90831273   0.20210349   0.20621424
H   -3.62773406   0.05974365   1.68706011
C   -0.08863344   0.10845521   0.29936618
O   -0.31082925   0.95793875  -0.75228258
O    1.10530914  -0.53886590   0.11887997
O   -1.10214216  -0.81148535   0.36486137
