64
Energy:  -1795.05103172
O   -0.25413447  -1.31142395  -2.42645752
H   -0.09580024  -0.83525297  -1.61133587
H   -0.77923649  -2.06765307  -2.16450861
O    2.00228517  -0.72209155   2.21797423
H    1.46830509  -1.35176794   2.70233438
H    1.51198224  -0.56170660   1.41167928
O    2.28249222  -2.68456318  -0.47675126
H    3.09372234  -2.38111438  -0.06925111
H    1.69609820  -1.92912644  -0.43565099
O   -2.32895925   2.07801153   1.07378778
H   -1.70873794   1.53042546   0.59242839
H   -3.07738149   1.50459723   1.23899077
O    2.29388636  -2.02854872  -3.13158196
H    2.44745833  -2.43530042  -2.27882142
H    1.38434377  -1.73242037  -3.09591521
O   -1.11482158   1.92762232   3.52606667
H   -0.17407320   1.93539090   3.34953342
H   -1.52047666   2.07790541   2.67219853
O    1.09749144   2.77373264   0.30204558
H    0.34686492   3.35353741   0.17313429
H    0.75482103   1.89620655   0.13246729
O   -1.19155980   4.12399715  -0.41195655
H   -1.05212851   3.68355395  -1.25028855
H   -1.71085868   3.50478430   0.10101126
O   -3.06124115  -0.76792674  -0.97174785
H   -2.24331206  -0.69712804  -0.47959807
H   -2.90257519  -0.27017450  -1.77380749
O   -0.55352320   2.55812328  -2.60129377
H    0.38809540   2.69611734  -2.70397722
H   -0.62523797   1.89019947  -1.91940915
O   -2.14993225   0.37684208  -3.39634970
H   -1.48092710  -0.24784398  -3.11629382
H   -1.73736197   1.23401400  -3.29017105
O    4.21000267  -1.03151745   0.53979409
H    3.91657994  -0.51812438  -0.21290938
H    3.53979701  -0.88373764   1.20704019
O    2.99450768   0.20461101  -1.70666933
H    2.88813098  -0.48884989  -2.35784353
H    2.23223934   0.11562069  -1.13460329
O    2.17637734   2.78488317  -2.21082480
H    2.53154424   1.89601587  -2.20902474
H    1.87591418   2.92508130  -1.31288370
O   -0.09919124  -3.32317152   0.68470444
H   -0.38877680  -2.41223861   0.63397690
H    0.78343756  -3.31538244   0.31438353
O   -1.90828360  -3.25480492  -1.43653544
H   -2.41159778  -2.46677148  -1.23181613
H   -1.32683604  -3.37018479  -0.68497835
O    0.21033049  -2.51503888   3.29849025
H   -0.49844172  -1.87221884   3.32410668
H    0.13535725  -2.92063916   2.43471987
O    1.53771953   1.90846853   2.87633506
H    1.44618381   2.28543360   2.00126341
H    1.71735712   0.98125870   2.72062985
O   -1.78648610  -0.64916637   2.95317937
H   -1.52136050   0.22055995   3.25237226
H   -1.44218200  -0.71175797   2.06224232
O   -4.06504627   0.01368707   1.50035964
H   -3.82413910  -0.28913745   0.62486384
H   -3.36309616  -0.30678886   2.06674561
C   -0.14786582   0.06721370   0.29061916
O   -0.70303023   0.90151654  -0.64355942
O    1.03887013  -0.42525415  -0.18501935
O   -1.00579641  -0.97126097   0.54222530
