64
Energy:  -1787.98525334
O    0.48796192  -1.74777966  -1.96865152
H    0.26983672  -1.16245291  -1.24336134
H   -0.15754918  -2.45221205  -1.91101233
O    1.93598192  -0.42378038   1.93272475
H    1.47894504  -1.11360500   2.41386001
H    1.34794880  -0.20548506   1.20967839
O    2.59624895  -3.08430390  -0.86806570
H    3.14776935  -2.40221100  -0.48491253
H    1.91874443  -2.60522559  -1.34524852
O   -2.74570225   2.08135596   0.91617184
H   -2.20950100   2.19242237   1.70127331
H   -2.23056017   1.50315657   0.35354768
O    0.54066272   0.13503482  -3.87647527
H    0.50853960  -0.54858718  -3.20725116
H    0.33706708   0.94256908  -3.40459703
O   -0.83581777   2.08726127   2.91062497
H   -0.23312248   2.29587298   2.19685233
H   -0.98613180   1.14536030   2.83025012
O    0.74847571   2.89664391   0.79006276
H    0.03253975   3.36117741   0.35661590
H    0.69046997   2.00137115   0.45636547
O   -1.37070196   3.94434630  -0.59019934
H   -1.01992786   3.41701630  -1.30791269
H   -1.96651502   3.35469146  -0.12808915
O   -2.85989060  -1.71895506  -0.70952831
H   -2.06293303  -1.34676771  -0.33194779
H   -2.90600372  -1.34482246  -1.58937502
O    0.03932357   2.32994178  -2.32853930
H    0.88870503   2.68631588  -2.06819248
H   -0.15317785   1.66281813  -1.66966064
O   -2.24111432  -0.29058578  -3.07721061
H   -1.94536543   0.09659812  -2.25328521
H   -1.46368858  -0.28939032  -3.63563666
O    3.93655197  -0.93315294   0.10953015
H    3.64190880  -0.41304096  -0.63806652
H    3.30573853  -0.73664964   0.80212867
O    2.74744325   0.51861472  -1.95587096
H    2.34441501   0.31131040  -2.79897535
H    2.02807603   0.46604427  -1.32660233
O    2.44577957   3.18658938  -1.36613382
H    2.71543310   2.28490621  -1.54073702
H    2.01042565   3.14626953  -0.51462156
O    0.43411224  -3.37986748   0.76268347
H    1.27367654  -3.36940258   0.30305958
H    0.07244070  -2.50490201   0.62175448
O   -1.24474328  -3.81034907  -1.35676313
H   -1.90551449  -3.15359905  -1.13700720
H   -0.67112055  -3.83921541  -0.59102456
O    0.48053444  -2.34923583   3.28262513
H   -0.28985406  -1.78313591   3.23504067
H    0.46568063  -2.84409748   2.46340406
O    1.60770565   1.37849526   4.05116587
H    1.84018053   0.79300994   3.33047577
H    0.74589654   1.72081377   3.81381603
O   -1.59413064  -0.57974958   2.72285185
H   -1.16875315  -0.65089364   1.86832018
H   -2.53061122  -0.57254780   2.52490205
O   -4.03845248  -0.31183517   1.41938303
H   -3.71501641  -0.83933132   0.68906202
H   -3.71060925   0.56986022   1.24228441
C   -0.44642642   0.27191209   0.14096826
O   -1.35696118   0.65671304  -0.80761651
O    0.82125770   0.51791559  -0.31680683
O   -0.58932812  -1.06725473   0.39393374
