64
Energy:  -1785.42184462
O    0.36796737  -1.85309168  -1.94819656
H    0.27215286  -1.15799276  -1.29712902
H   -0.17006610  -2.57076834  -1.61399297
O    1.50176156  -0.22467814   2.67030237
H    1.16670564  -0.98085183   3.15214335
H    1.00961009  -0.22596146   1.84931691
O    2.82149274  -2.55472813  -1.02660482
H    3.04426725  -1.84924649  -0.41923424
H    1.97431570  -2.29881430  -1.39133901
O   -2.51979794   2.00501223   0.87778625
H   -1.86188852   1.48011501   0.42185868
H   -3.21482106   1.38347213   1.09426398
O   -0.44292550  -0.38362153  -4.13192794
H   -0.09965763  -0.96327019  -3.45192320
H   -0.26078362   0.49898406  -3.80933910
O   -1.35799220   2.10511990   3.35251817
H   -0.43303420   2.30283126   3.20556663
H   -1.75779179   2.16895999   2.48515632
O    1.32740939   2.92564607   0.09332930
H    0.50806224   3.34770140  -0.16507233
H    1.16286027   1.99003484  -0.02408905
O   -1.10651333   3.77078294  -0.89237843
H   -0.85683656   3.17998084  -1.60290374
H   -1.68584191   3.24803938  -0.33798740
O   -2.57845470  -1.75727231  -0.37672380
H   -1.79110091  -1.29728888  -0.08565488
H   -2.75333926  -1.40509055  -1.24942951
O    0.00419541   1.97988856  -2.72418485
H    0.91412124   2.27450780  -2.68589213
H   -0.09099497   1.39633995  -1.97142881
O   -2.74887739  -0.26114571  -2.66190575
H   -2.27186452   0.17518448  -1.95599745
H   -2.09147948  -0.40505705  -3.34260345
O    3.27619679  -0.48715485   0.63333678
H    2.54672330  -0.10502038   0.14540900
H    2.96390404  -0.53044379   1.53712390
O    2.83477073   0.05834000  -2.45315254
H    3.15809910  -0.82901832  -2.29731347
H    2.10244293   0.15722429  -1.84475321
O    2.59946872   2.79675846  -2.34365500
H    2.29195993   2.89627637  -1.44267421
H    2.85121922   1.87571357  -2.41095921
O    0.96712969  -3.12383146   0.97891051
H    1.72277206  -3.11143489   0.39147303
H    0.54495276  -2.27529535   0.84480249
O   -0.99915868  -3.92165490  -0.75184808
H   -1.65885775  -3.24995819  -0.57906929
H   -0.33237457  -3.78171972  -0.07950222
O    0.28959773  -2.47916469   3.62467998
H   -0.46389412  -1.91452874   3.45243559
H    0.52582009  -2.83241484   2.76698238
O    1.28974406   2.50065462   2.81653361
H    1.33497751   2.72894269   1.88805618
H    1.43856359   1.55535568   2.83877099
O   -1.58521316  -0.58419052   2.89325837
H   -1.44340153   0.31657290   3.18437101
H   -1.14799723  -0.63330961   2.04316344
O   -3.93411154  -0.29025613   1.53538324
H   -3.64960993  -0.79252065   0.77182510
H   -3.22448175  -0.39455048   2.16924450
C   -0.08529545   0.31763825   0.12341963
O   -1.09186059   0.56847169  -0.77149243
O    1.12169698   0.36003522  -0.52347337
O   -0.26462020  -0.92353086   0.67579819
