64
Energy:  -1793.09851430
O   -0.04010565  -1.07573891  -2.54916418
H    0.11663354  -0.69218853  -1.68628888
H   -0.76746142  -1.68297718  -2.41334402
O    1.90848081  -1.19157011   2.31194217
H    1.32860430  -1.86345137   2.67048178
H    1.46889698  -0.89566611   1.51479807
O    2.18463492  -2.93623422  -0.52905284
H    2.96745948  -2.77245281  -0.00313154
H    1.67479498  -2.12921166  -0.45827386
O   -1.72670971   2.41028754   1.15135929
H   -1.24902636   1.73448683   0.67037710
H   -2.42894217   1.93657995   1.59711992
O    2.57350316  -1.84830514  -3.01081271
H    2.59257753  -2.39583948  -2.22590878
H    1.67813826  -1.51178453  -3.04697082
O    0.83835824   3.02807353   1.98426373
H    1.28188777   2.78924383   1.17033881
H   -0.09021780   2.88247492   1.80321279
O    1.75437155   2.26718397  -0.55929325
H    1.05427680   1.62250136  -0.45690417
H    2.51799836   1.75270341  -0.82085721
O   -2.14623486   3.97949822  -1.09276284
H   -1.31844250   3.87780104  -1.56249610
H   -2.00320616   3.53733150  -0.25594552
O   -3.28708707  -0.60182470  -0.26873122
H   -2.39295559  -0.66086554   0.06783220
H   -3.26278203   0.12779269  -0.88784315
O   -2.67228388   1.45498328  -1.95468104
H   -2.70187283   2.38179584  -1.71724721
H   -1.88251973   1.12296849  -1.52774940
O   -0.78953268   1.21182824  -3.89371414
H   -0.40918447   0.42337210  -3.50653975
H   -1.59355978   1.35979953  -3.39584190
O    4.19081317  -1.70761691   0.87722641
H    4.06092116  -1.05820537   0.18612253
H    3.48326276  -1.54031085   1.49981210
O    3.33756021   0.03326956  -1.11604008
H    3.28022687  -0.46627745  -1.93053226
H    2.49475355  -0.11140128  -0.68594808
O    0.16621088   3.41215660  -2.50630563
H   -0.08142114   2.65451365  -3.03629372
H    0.75173883   3.05638649  -1.83786229
O   -0.36450888  -3.29920569   0.41148725
H   -0.51236389  -2.35603089   0.48071182
H    0.53400412  -3.37839440   0.09111966
O   -2.10352258  -2.72085434  -1.67930019
H   -2.59826274  -2.01315212  -1.26623651
H   -1.50778045  -3.02786890  -0.99587849
O   -0.04940867  -2.91781552   3.12941124
H   -0.54327050  -2.10844077   3.26073089
H   -0.20438624  -3.14754479   2.21320260
O    1.07237513   0.96433417   3.78513257
H    1.02845159   1.70137735   3.17597748
H    1.44852366   0.25002060   3.27083667
O   -1.22556552  -0.42525200   3.22985424
H   -0.50644276   0.13425461   3.52319136
H   -1.08238387  -0.52650375   2.28885533
O   -3.54872368   0.65412757   2.20865646
H   -3.56967083   0.19598794   1.36847722
H   -2.80686674   0.26790200   2.67417761
C   -0.00924321   0.03626669   0.35514211
O   -0.50412689   0.85622478  -0.62450949
O    1.08023538  -0.64198636  -0.12455360
O   -0.97567163  -0.85913240   0.73204632
