64
Energy:  -1783.94038691
O    0.04537082  -1.18796239  -2.32292554
H    0.10139666  -0.64388091  -1.53738859
H   -0.48764060  -1.93762937  -2.05810468
O    1.73693259  -0.02988744   2.61275862
H    1.16769037  -0.67036746   3.03935034
H    1.37937581   0.05807836   1.72921631
O    2.25408985  -2.70409557  -2.56118790
H    1.51632498  -2.09499692  -2.59174422
H    1.95056648  -3.42093307  -2.00418753
O   -2.35673197   2.53598953   0.77481828
H   -2.08901363   2.50397271   1.69325917
H   -1.81916890   1.87088697   0.34482249
O   -1.82299793   0.29853024  -3.61306815
H   -1.17971681  -0.29588500  -3.22694411
H   -1.43886918   1.16895267  -3.50798838
O   -1.55561248   2.08874089   3.31905603
H   -0.62169170   2.26078413   3.19895210
H   -1.66024072   1.16430119   3.09389823
O    1.36046573   2.77966068   0.17759561
H    0.60644397   3.29616730  -0.10684058
H    1.05940947   1.87202987   0.13513058
O   -0.79040288   4.19207942  -0.77322974
H   -0.63608698   3.63303031  -1.53472993
H   -1.40981461   3.69908475  -0.23516170
O   -1.49251331  -3.09456915  -1.11288723
H   -1.12600989  -2.51555323  -0.44457020
H   -2.29454915  -2.65596087  -1.39677654
O   -0.12264672   2.33187724  -2.67930759
H    0.83224214   2.28018888  -2.72110995
H   -0.36354033   1.74570624  -1.96194737
O   -2.98285479  -0.74215841  -1.25309550
H   -2.19377114  -0.62474720  -0.72414045
H   -2.80109561  -0.26710186  -2.06396954
O    3.69378917  -1.40793730   1.28033790
H    3.63175860  -1.04651913   0.39616542
H    3.13863581  -0.83769841   1.81218768
O    3.17439963  -0.46159974  -1.25465283
H    2.97311926  -1.27040935  -1.72533858
H    2.36377622  -0.24352522  -0.79469082
O    2.60380822   2.13479096  -2.17735916
H    2.86157381   1.22669624  -2.01876309
H    2.27174274   2.44089253  -1.33340051
O    1.24012027  -2.61081554   1.03221937
H    2.12237648  -2.24587815   1.10060458
H    0.70396987  -1.88448931   0.71406091
O    0.93749173  -4.48196120  -0.89774025
H    0.03545497  -4.24759991  -1.11599770
H    1.15784115  -3.92128849  -0.15388267
O    0.01345642  -2.00755460   3.42998744
H   -0.79625407  -1.56240381   3.18010439
H    0.36722722  -2.34259724   2.60607937
O    1.10473267   2.58335314   2.89428847
H    1.19867392   2.80393784   1.96760121
H    1.37324677   1.66634577   2.95111725
O   -2.16856701  -0.48590369   2.48315203
H   -1.59393222  -0.58763476   1.72441788
H   -3.01492447  -0.23722584   2.11157399
O   -4.21227862   0.51793786   0.87496928
H   -3.90020721   0.01643984   0.12174752
H   -3.68274547   1.31529854   0.86845475
C   -0.25233602   0.19329963   0.33369412
O   -0.87181844   0.92344723  -0.64614486
O    1.08976231   0.11939581   0.06834702
O   -0.78234948  -1.06997296   0.36544778
