64
Energy:  -1791.94322151
O    0.38834447  -1.97235870  -1.86427266
H    0.34709383  -1.27826794  -1.20642142
H   -0.25978561  -2.61505594  -1.57600280
O    1.44852877  -0.38611960   2.66509541
H    1.00381893  -1.07735919   3.15565920
H    0.98561180  -0.35001356   1.82805533
O    2.53289581  -3.18432708  -0.62064665
H    2.92458131  -2.43484031  -0.17222286
H    1.86499869  -2.80145124  -1.18946242
O   -2.36553105   2.14993451   0.76902926
H   -1.73393794   1.57994678   0.33035401
H   -3.11029462   1.58005721   0.96085974
O    0.18559819  -0.30247927  -3.99283424
H    0.23093800  -0.90174107  -3.24780978
H    0.14623056   0.56864272  -3.59808304
O   -1.29684331   2.22543337   3.29099740
H   -0.35017002   2.32010903   3.18574510
H   -1.64603888   2.30377745   2.40321561
O    1.55829029   2.79945296   0.19338988
H    0.76249353   3.27294014  -0.04899258
H    1.34192093   1.87791466   0.05132193
O   -0.78264682   3.90074954  -0.78099156
H   -0.57781444   3.34769354  -1.53491768
H   -1.42204379   3.39520668  -0.27916512
O   -2.68082432  -1.52911509  -0.53675822
H   -1.87077877  -1.14356560  -0.20297738
H   -2.74345257  -1.21303606  -1.43809256
O    0.18353414   2.11802929  -2.67346970
H    1.09742411   2.38695913  -2.58012240
H    0.02719360   1.53678564  -1.92919467
O   -2.40479746  -0.18352825  -2.92177524
H   -1.97717869   0.23072940  -2.17226563
H   -1.69252493  -0.36267981  -3.53561920
O    3.23707721  -0.90448022   0.67003089
H    2.55532648  -0.47788298   0.15093304
H    2.91257737  -0.86673475   1.56975695
O    2.62995688   0.15038040  -2.67508960
H    1.99078385  -0.09904414  -3.34253029
H    2.14440506   0.11079102  -1.85113331
O    2.79099029   2.82122857  -2.24547228
H    2.92046931   1.88691623  -2.40834483
H    2.51060704   2.86891197  -1.33150107
O    0.47767002  -3.25398224   1.15597535
H    1.27616302  -3.36529552   0.63998103
H    0.18679340  -2.36358540   0.95895732
O   -1.32703284  -3.84916395  -0.80155028
H   -1.92199101  -3.10888232  -0.68221988
H   -0.72144990  -3.79190548  -0.06248153
O   -0.05035299  -2.40754377   3.73557328
H   -0.73897295  -1.77829702   3.52090392
H    0.14098027  -2.84605591   2.90651928
O    1.39915988   2.33363108   2.89290920
H    1.50355692   2.57882205   1.97355372
H    1.47935791   1.37980769   2.89749862
O   -1.71755770  -0.42772444   2.81661872
H   -1.52108279   0.46333913   3.10581619
H   -1.24553353  -0.52104289   1.98914262
O   -3.98840718  -0.00865668   1.36137035
H   -3.70696472  -0.52154002   0.60376052
H   -3.31114632  -0.16221866   2.02013305
C   -0.03735576   0.31091363   0.09262632
O   -0.96520738   0.63898326  -0.86048441
O    1.20327396   0.23795902  -0.48410090
O   -0.35782780  -0.90248167   0.64285331
