64
Energy:  -1798.92850396
O    0.62156107  -1.75634372  -1.84163534
H    0.40623701  -1.10431618  -1.17475642
H   -0.01063389  -2.46118759  -1.70107748
O    1.86410451  -0.29265489   2.16136549
H    1.38584356  -0.93880967   2.68096372
H    1.31875568  -0.15653260   1.38657699
O    2.63608199  -3.07989938  -0.54458879
H    3.16009813  -2.40868003  -0.10743492
H    1.98189331  -2.58811544  -1.04099346
O   -2.67667585   2.03441964   0.80319416
H   -2.00573020   1.51141415   0.36441284
H   -3.35609207   1.40319274   1.04021323
O   -0.01832315  -0.31128908  -4.05760109
H    0.19586038  -0.87728201  -3.31597499
H    0.04187551   0.57721446  -3.70664606
O   -1.48222390   2.14767080   3.28759785
H   -0.53686007   2.22807617   3.16089323
H   -1.84915991   2.21595520   2.40616320
O    1.04006268   3.02869231   0.25019518
H    0.23084791   3.42166019  -0.07688211
H    0.91227049   2.08682846   0.13708687
O   -1.29778354   3.80642910  -0.96712706
H   -0.95882565   3.21282642  -1.63718322
H   -1.87979871   3.26228382  -0.43665925
O   -2.76993112  -1.69556657  -0.62697203
H   -1.98560350  -1.29621094  -0.25070470
H   -2.84398681  -1.30495082  -1.49769985
O    0.12053264   2.04298562  -2.64439918
H    1.01110208   2.35279678  -2.47967224
H   -0.07392807   1.46727119  -1.90482514
O   -2.53876177  -0.21786055  -2.92858522
H   -2.14815783   0.20121578  -2.16175053
H   -1.80340410  -0.36131381  -3.52432182
O    3.98117198  -1.00587549   0.57910782
H    3.76620831  -0.52629211  -0.22090608
H    3.30186453  -0.74912812   1.20268943
O    2.99582699   0.16429345  -1.70895157
H    2.71085273  -0.47059168  -2.36617481
H    2.23517541   0.27756849  -1.13903070
O    2.63381883   2.87226163  -1.96170812
H    2.89812196   1.95330690  -1.91814301
H    2.19033726   3.03416045  -1.12903489
O    0.46230200  -3.27540405   1.06913584
H    1.30512486  -3.29747686   0.61593140
H    0.11011619  -2.40596062   0.87870181
O   -1.09857187  -3.77632849  -1.12111733
H   -1.78071608  -3.12278903  -0.96685362
H   -0.57891178  -3.77516311  -0.31726170
O    0.41553641  -2.16079186   3.56400779
H   -0.35895854  -1.61062507   3.44693547
H    0.45397306  -2.69328318   2.76952212
O    1.21191428   2.28093599   2.86856377
H    1.18113557   2.66418538   1.99197696
H    1.46932207   1.37047647   2.72352397
O   -1.66068535  -0.52650548   2.85761878
H   -1.56074876   0.39274379   3.10505624
H   -1.25016456  -0.58888278   1.99517249
O   -4.00528545  -0.32095977   1.44821465
H   -3.72606401  -0.79014529   0.66200082
H   -3.27791232  -0.42613435   2.06148333
C   -0.32794824   0.31594409   0.17967077
O   -1.17621632   0.63752871  -0.84696596
O    0.96897458   0.46541659  -0.23595880
O   -0.54024291  -0.98426003   0.55673895
