64
Energy:  -1794.84324472
O    0.30819692  -1.79599988  -1.89864930
H    0.20362669  -1.18364709  -1.17041790
H   -0.23127974  -2.54923948  -1.65817709
O    2.07449886  -0.44087718   1.96625945
H    1.54685445  -1.00080576   2.53573570
H    1.49855847  -0.23742700   1.22928418
O    3.28891148  -2.55636958   0.73029378
H    2.98309611  -1.74558692   1.13691436
H    3.26660224  -2.37672216  -0.20963226
O   -2.59411774   1.95462433   1.10072566
H   -1.96134832   1.46088935   0.57913149
H   -3.26891389   1.31492871   1.32803936
O    0.20957446   0.05297823  -3.86431359
H    0.21773195  -0.60057692  -3.16500610
H    0.01769742   0.87836815  -3.41917706
O   -1.21476257   1.99776511   3.49828901
H   -0.27663607   2.04189932   3.31334933
H   -1.63296279   2.09946687   2.64330528
O    1.08721402   2.98991816   0.41112304
H    0.24237262   3.39475134   0.21469254
H    0.95720129   2.06027310   0.22380350
O   -1.35127671   3.91961706  -0.47419718
H   -1.09260440   3.41797773  -1.24729386
H   -1.90123481   3.31890228   0.02871403
O   -2.73317665  -1.71996202  -0.50948327
H   -1.94230189  -1.31305375  -0.15568303
H   -2.81419100  -1.35932509  -1.39243827
O   -0.15108605   2.34183659  -2.42515660
H    0.73185056   2.68729232  -2.29356966
H   -0.26719237   1.70502886  -1.72001329
O   -2.47550737  -0.23797757  -2.84869182
H   -2.08920378   0.15779260  -2.06743171
H   -1.74841067  -0.30670154  -3.46743187
O    3.01509454  -2.09981165  -1.93897679
H    3.14207843  -1.16125866  -2.07763184
H    2.06498190  -2.21099673  -1.90498117
O    2.54957617   0.56010660  -2.35682317
H    1.93599677   0.37354413  -3.06741913
H    2.02509872   0.48129803  -1.55998914
O    2.39359041   3.23603386  -1.95271536
H    2.61869838   2.31986911  -2.11458071
H    2.07069668   3.24824477  -1.05170349
O    0.66752041  -3.25055850   1.00299581
H    1.60715680  -3.13101991   0.86506171
H    0.28671415  -2.39200617   0.81831677
O   -1.16127697  -3.90601848  -0.94031656
H   -1.80838171  -3.22674253  -0.75039158
H   -0.52625558  -3.83861720  -0.22726904
O    0.61081148  -2.19616325   3.51257268
H   -0.18196145  -1.66499727   3.43770192
H    0.62092300  -2.72591299   2.71539339
O    1.46333859   2.05261755   2.92843437
H    1.37116782   2.50881552   2.09200158
H    1.72667565   1.16394913   2.68936561
O   -1.52410601  -0.62865872   2.92487862
H   -1.38454777   0.27170053   3.21832121
H   -1.13996509  -0.65775326   2.04862459
O   -3.93053074  -0.41760501   1.64274096
H   -3.67796819  -0.85017799   0.82706663
H   -3.17623749  -0.53506340   2.22021569
C   -0.26728919   0.31189352   0.20885302
O   -1.20303326   0.66274024  -0.72829584
O    0.98718472   0.45322406  -0.32351874
O   -0.46150464  -0.99238584   0.58156726
