64
Energy:  -1782.88386015
O   -0.42449816  -1.42841847  -2.31974028
H   -0.16020220  -0.93699738  -1.54199688
H   -0.97311403  -2.13612411  -1.98150189
O    2.37535318  -0.80198025   2.02931137
H    1.91730997  -1.42975482   2.58817392
H    1.78273290  -0.66095656   1.29097176
O    2.16848737  -2.92628212  -0.54439480
H    3.03778829  -2.65903946  -0.24584981
H    1.63815488  -2.13198016  -0.48064763
O   -2.37583490   2.31623683   0.66783175
H   -1.73502640   1.65984874   0.39442549
H   -3.22352867   1.88727007   0.55106431
O    2.04038883  -2.22614883  -3.19349287
H    2.23392163  -2.65352293  -2.35914985
H    1.14191555  -1.91000261  -3.09847079
O   -2.91541346   1.35536376   3.15862841
H   -2.64920842   1.86068132   2.39050024
H   -2.17019207   0.78234935   3.33899311
O    1.17269722   2.78825974   0.43622968
H    0.48676747   3.41383797   0.20302569
H    0.78855773   1.93112664   0.25186173
O   -0.91629188   4.24077889  -0.61294346
H   -0.72826179   3.75694851  -1.41717272
H   -1.52078838   3.67745643  -0.12974201
O   -3.02359871  -0.63323942  -0.70854539
H   -2.21832852  -0.57516620  -0.19434770
H   -2.82118154  -0.17478461  -1.52406874
O   -0.28266252   2.48636213  -2.63567235
H    0.66306441   2.62860906  -2.67565008
H   -0.39967295   1.84683876  -1.93314102
O   -2.18202755   0.42396432  -3.21526426
H   -1.55238575  -0.25261530  -2.96621993
H   -1.68292291   1.24007944  -3.18236267
O    4.31022532  -1.35476144   0.15148819
H    3.95407589  -0.82455056  -0.56143948
H    3.75623269  -1.14802568   0.90420616
O    2.86268302   0.00762380  -1.82085596
H    2.69471216  -0.66911052  -2.47663664
H    2.13947804  -0.07568325  -1.19935266
O    2.39548139   2.70360908  -2.03709314
H    2.63051883   1.77645779  -2.07423793
H    2.07224500   2.83371457  -1.14556487
O   -0.16709482  -3.16580545   0.91733842
H   -0.37469799  -2.23387296   0.84926051
H    0.66347945  -3.26132459   0.45123292
O   -2.09045049  -3.19372537  -1.06215226
H   -2.53398732  -2.36082169  -0.90159580
H   -1.46388432  -3.27448965  -0.34303905
O    0.69205935  -2.44921325   3.41855661
H    0.19702539  -1.63621055   3.51955082
H    0.38000934  -2.81918514   2.59273736
O    1.58015154   1.64125813   2.98296936
H    1.41373080   2.13648059   2.18091531
H    1.94903305   0.81141237   2.68045603
O   -0.59534084  -0.05101673   3.31492039
H    0.08598077   0.62130634   3.31112688
H   -0.72359712  -0.26792886   2.39148588
O   -4.61481617   0.73900667   1.01920834
H   -4.12435056   0.15016382   0.44567593
H   -4.13533571   0.72175957   1.84747935
C   -0.00417896   0.09099312   0.34600835
O   -0.53631743   0.88645473  -0.63431193
O    1.01062420  -0.66444359  -0.17990868
O   -0.97858112  -0.73458394   0.84274083
