64
Energy:  -1786.34295804
O    0.62605910  -1.61738428  -2.04515245
H    0.37585592  -1.10531041  -1.27612022
H   -0.01338894  -2.32889714  -2.07812967
O    1.82787518  -1.53406847   1.72816518
H    1.27230925  -2.31124235   1.66833960
H    1.40539667  -0.89251725   1.15706466
O    2.62213117  -2.75701690  -0.59380491
H    2.58520799  -2.22000697   0.19770559
H    2.02125553  -2.32809139  -1.20306941
O   -2.78455739   2.01226128   0.77081407
H   -2.58231194   1.95240898   1.70448763
H   -2.12702675   1.46066446   0.34699069
O    0.84461849   0.53720128  -3.66389965
H    0.74268450  -0.23361426  -3.10561234
H    0.64529487   1.27707232  -3.09023357
O   -2.25823118   1.60561163   3.39942610
H   -1.35025316   1.80853740   3.62443475
H   -2.23914804   0.68743927   3.12956095
O    1.09620093   2.48736811   1.34976864
H    0.38120094   3.04087447   1.03570244
H    0.94082200   1.63764487   0.93738574
O   -0.91410070   3.91741145   0.12129077
H   -0.53748753   3.53613012  -0.67181636
H   -1.64780867   3.34248269   0.33891745
O   -2.71863195  -1.58859666  -1.19913461
H   -1.98134218  -1.31606987  -0.65290683
H   -2.62825792  -1.07159199  -1.99961607
O    0.42893803   2.53213997  -1.83809630
H    1.28336667   2.76561502  -1.47522863
H    0.13283526   1.79719521  -1.30105701
O   -1.94679414   0.22697671  -3.16072098
H   -1.69586210   0.46676346  -2.26866310
H   -1.12778901   0.25258836  -3.65550022
O    4.75339721  -1.48049074  -1.78120010
H    4.15158183  -2.10229145  -1.37203757
H    4.26109196  -0.66054602  -1.82067199
O    2.91808852   0.58978472  -1.75386831
H    2.43173503   0.57935218  -2.57823673
H    2.26330780   0.38515390  -1.08632034
O    2.83403705   3.08217462  -0.66846412
H    3.03971952   2.21408759  -1.01538122
H    2.35229302   2.90939468   0.14042502
O    0.30238912  -3.58422827   0.57069039
H    1.13148367  -3.49000098   0.10169648
H   -0.10616040  -2.72060365   0.51176975
O   -1.14223070  -3.72534091  -1.76185238
H   -1.80127068  -3.05350192  -1.58712249
H   -0.69584106  -3.84729753  -0.92394146
O    0.23898169  -0.84834692   3.83267202
H   -0.62076102  -0.97286629   3.43071524
H    0.86142212  -1.02042782   3.12613969
O    0.39886233   1.87944809   3.92706556
H    0.70394068   2.10269073   3.04767839
H    0.42628076   0.92304894   3.95500712
O   -2.19859587  -0.93404967   2.40275439
H   -1.57239730  -0.93965653   1.67882362
H   -3.05355893  -0.85361035   1.97990746
O   -4.27943092  -0.31374172   0.69522992
H   -3.82126054  -0.79217601   0.00427957
H   -3.88644548   0.55899400   0.68397491
C   -0.32545739   0.09850357   0.25702797
O   -1.07381826   0.68908539  -0.72690673
O    1.00532349   0.22764338  -0.04204385
O   -0.64846344  -1.23059864   0.34030219
