64
Energy:  -1789.78398536
O    0.61446226  -1.73696972  -1.87471532
H    0.33472986  -1.17025078  -1.15581945
H    0.03993036  -2.50031982  -1.81605033
O    1.98800274  -0.40875558   1.92360662
H    1.51239473  -1.01099675   2.49573812
H    1.36677556  -0.19929934   1.22615646
O    2.77819402  -2.97108884  -0.76981805
H    3.31505461  -2.25805601  -0.42399044
H    2.07350304  -2.53177580  -1.24589213
O   -3.06948922   1.81788933   0.71560155
H   -2.61829881   1.96815483   1.54631169
H   -2.45796356   1.28971992   0.20246874
O    0.59465289   0.16671392  -3.77108879
H    0.58606583  -0.51862491  -3.10290558
H    0.30809727   0.95506130  -3.30997478
O   -1.48394565   2.04530486   2.89391060
H   -0.72020786   2.27985921   2.36672876
H   -1.47065481   1.08864758   2.92327115
O    0.48484152   2.90308704   0.99062094
H   -0.23801986   3.34819705   0.54837627
H    0.47588910   2.01579485   0.63164424
O   -1.62356378   3.82827405  -0.49481242
H   -1.20711638   3.35942425  -1.21798825
H   -2.23510720   3.19511595  -0.11883728
O   -2.69303583  -1.97918553  -0.72080261
H   -1.94930552  -1.52898871  -0.32027808
H   -2.74303176  -1.61907734  -1.60627105
O   -0.11344617   2.33735997  -2.24988615
H    0.70757051   2.73638030  -1.96188225
H   -0.28478215   1.64974878  -1.60640602
O   -2.17035368  -0.51686306  -3.09141200
H   -1.92487748  -0.09892176  -2.26600401
H   -1.38415102  -0.45655286  -3.63407203
O    4.03816739  -0.74377101   0.12119842
H    3.69856389  -0.22595507  -0.60871114
H    3.39861088  -0.61858825   0.82228942
O    2.69744436   0.70275178  -1.84215960
H    2.30528861   0.48148416  -2.68684081
H    1.98414864   0.60010185  -1.21215638
O    2.18729878   3.32814682  -1.19291670
H    1.74264930   3.23284466  -0.35063635
H    2.53230165   2.45558747  -1.38224462
O    0.65622695  -3.33274998   0.91251382
H    1.49334815  -3.27797035   0.45158091
H    0.23528200  -2.48923252   0.74663585
O   -0.90986839  -3.95342893  -1.24758346
H   -1.62911491  -3.34813764  -1.06719848
H   -0.36014733  -3.91294060  -0.46502401
O    0.51044421  -2.22485157   3.41017525
H   -0.30491348  -1.73477774   3.30410291
H    0.58114569  -2.74868369   2.61215704
O    2.39944206   2.14946626   2.89424644
H    1.78287293   2.58797997   2.30791882
H    2.33851432   1.22391137   2.65788271
O   -1.72413000  -0.70561817   2.72918447
H   -1.23697156  -0.71747238   1.90531071
H   -2.64087786  -0.79013336   2.46714938
O   -4.10808213  -0.67218372   1.29850856
H   -3.69933559  -1.18747799   0.60307349
H   -3.87084381   0.23309965   1.09748155
C   -0.49937240   0.23098068   0.18510462
O   -1.38768989   0.50716217  -0.82066584
O    0.76299728   0.58785606  -0.21006816
O   -0.52895113  -1.11022789   0.46450556
