64
Energy:  -1801.04777048
O    0.70731496  -1.77500325  -1.86885585
H    0.42465664  -1.13604399  -1.21458740
H    0.16944487  -2.54800735  -1.69741411
O    1.47203903  -0.26736461   2.32848334
H    0.93473393  -0.91583602   2.78347774
H    1.03141457  -0.13722243   1.48875424
O    2.72301314  -2.95706234  -0.36593816
H    3.16560493  -2.28002907   0.14589219
H    2.12531456  -2.47413837  -0.93670317
O   -2.84796339   2.06128044   0.37931518
H   -2.56482344   2.15902382   1.28844105
H   -2.20319418   1.47104027  -0.01071180
O    1.90607877  -0.00900064  -3.59500738
H    1.37635420   0.76139767  -3.38979973
H    1.52421705  -0.71032866  -3.06722666
O   -2.02444651   1.97096580   3.00118390
H   -1.08376785   2.12909505   3.08087479
H   -2.09860393   1.02577316   2.86948953
O    0.73109968   3.05262857   0.50413420
H   -0.00563974   3.43648913   0.02863662
H    0.67155533   2.11473591   0.32235499
O   -1.30913551   3.79257346  -1.15327287
H   -0.84598712   3.19051732  -1.73572787
H   -1.92694979   3.23796980  -0.67687794
O   -2.68342217  -1.86106464  -0.90852298
H   -1.96570191  -1.44512446  -0.43092142
H   -2.58366941  -1.55168904  -1.80883846
O    0.47357470   2.08535045  -2.51542857
H    1.24509638   2.52040385  -2.15250341
H    0.19975044   1.47316917  -1.83243062
O   -1.69713472  -0.78796124  -3.21794653
H   -1.59046211  -0.14288353  -2.51885601
H   -0.88313930  -1.29145326  -3.20615305
O    3.81731011  -0.90645028   1.03676974
H    3.74144666  -0.36829631   0.24881868
H    3.04488495  -0.68230607   1.55575971
O    3.19516115   0.52130830  -1.23451872
H    3.00107940   0.29016226  -2.14288848
H    2.34556278   0.49811606  -0.79420454
O    2.69753737   3.19242052  -1.35194827
H    3.02919002   2.29595580  -1.30106234
H    2.09644591   3.26835346  -0.61089827
O    0.44912422  -3.25391448   1.07599967
H    1.32804231  -3.24746522   0.69693073
H    0.07891425  -2.40387172   0.83808428
O   -0.90215022  -3.88979079  -1.19826431
H   -1.62368716  -3.26795595  -1.10372484
H   -0.44210899  -3.85289812  -0.35967451
O   -0.16086376  -2.16415169   3.50816447
H    0.06852423  -2.68943431   2.74155429
H   -0.95462522  -1.69591146   3.24946447
O    0.69434854   2.25842178   3.10138628
H    0.72706499   2.67079654   2.23818958
H    0.98919357   1.36048354   2.94971167
O   -2.23271366  -0.67346008   2.39818731
H   -1.59433145  -0.66837014   1.68497340
H   -3.08265018  -0.63272161   1.95980376
O   -4.31296241  -0.26968573   0.64673847
H   -3.83084530  -0.84666726   0.05438109
H   -3.91724853   0.59219374   0.51709992
C   -0.43641039   0.28538648   0.08225731
O   -1.18670778   0.57909442  -1.02578052
O    0.88700781   0.51360956  -0.18899400
O   -0.61391737  -1.03135158   0.41762628
