64
Energy:  -1788.00778204
O    0.17566381  -1.21234016  -2.52469612
H    0.29573340  -0.76020494  -1.68959799
H   -0.60459432  -1.75157398  -2.39563808
O    2.04803748  -0.28767274   2.40801735
H    1.25264900  -0.24030724   2.93843748
H    1.73222244  -0.33711519   1.50577118
O    2.29903297  -2.86785887  -0.00923800
H    2.46145855  -3.00205872   0.92448583
H    1.89450387  -2.00185181  -0.06042215
O   -1.80909618   2.38381198   0.93015764
H   -1.23871079   1.75479799   0.48830499
H   -2.45907086   1.84379319   1.37976243
O    2.67466232  -2.33642178  -2.71765813
H    2.72923843  -2.65679149  -1.81731567
H    1.79625959  -1.96238045  -2.78645911
O   -0.12582635   2.53388185   3.07777391
H    0.75134842   2.56251918   2.69570561
H   -0.71665125   2.58787454   2.32661310
O    1.81388674   2.36165241  -0.82373185
H    1.10384815   1.74467233  -0.64649575
H    2.51001472   1.82427363  -1.20170241
O   -2.17331204   3.87218698  -1.39435192
H   -1.33683567   3.77301869  -1.84899990
H   -2.03259485   3.46242130  -0.54081656
O   -3.15563332  -0.61965971  -0.34447620
H   -2.25944056  -0.63466566  -0.00855178
H   -3.15473996   0.07830763  -0.99951256
O   -2.56116881   1.30011304  -2.18136880
H   -2.63533665   2.23528640  -1.99115373
H   -1.76650189   1.02455364  -1.72441876
O   -0.60740123   0.97730184  -4.04699986
H   -0.19194000   0.24477138  -3.59200213
H   -1.43128330   1.11411732  -3.57931224
O    2.41040222  -2.95581988   2.73565721
H    2.46146300  -2.00404231   2.64765661
H    1.48814124  -3.13034864   2.92329045
O    3.24589929   0.12113115  -1.56081233
H    3.25067250  -0.64003229  -2.14119091
H    2.50658090  -0.03061596  -0.97207387
O    0.15854026   3.32812503  -2.78802713
H   -0.02839596   2.52954529  -3.28154217
H    0.76966829   3.05090195  -2.10545718
O   -0.36523140  -3.17164614   0.33474508
H   -0.49726886  -2.22732410   0.41873223
H    0.56199274  -3.26585258   0.11654243
O   -2.02927138  -2.71008323  -1.77992728
H   -2.53120202  -2.00102566  -1.37801330
H   -1.44483118  -3.01399119  -1.08544801
O   -0.31469539  -3.01243127   3.06884724
H   -0.50614989  -2.08711430   3.22170508
H   -0.42448774  -3.12747715   2.12495004
O    2.34001194   2.38472850   1.89350030
H    2.35097307   1.44441335   2.07215958
H    2.17886552   2.44828214   0.95210527
O   -0.65739144  -0.14524892   3.19527703
H   -0.49984861   0.79484807   3.28262551
H   -0.63300302  -0.30604476   2.25199460
O   -3.30497835   0.47933528   2.20796207
H   -3.36032558   0.03544247   1.36171878
H   -2.48650423   0.16404490   2.59126864
C    0.09040168   0.16544985   0.28440890
O   -0.39315034   0.85832177  -0.79404571
O    1.21773500  -0.52132484  -0.08241379
O   -0.86081378  -0.71810344   0.72293249
