64
Energy:  -1787.59659889
O   -0.55551615  -1.66364580  -1.92617491
H   -0.50336703  -1.00197333  -1.23646348
H   -1.16043787  -2.32116544  -1.58270805
O    1.95026082  -0.50070789   1.89794868
H    1.52063132  -1.16497068   2.43684133
H    1.31682146  -0.30540207   1.20741115
O    1.81207339  -2.85402941  -1.47583563
H    2.41980795  -2.32751273  -0.95653732
H    1.01958511  -2.32014372  -1.53205180
O   -2.53238171   2.15792667   1.32694324
H   -2.00435812   1.59142349   0.76436251
H   -3.14945447   1.56391037   1.75425775
O    2.21635782  -1.41728734  -3.86130053
H    2.05403953  -2.04267698  -3.15506231
H    1.36657497  -1.00510214  -4.01687792
O   -0.90848508   2.18907738   3.57734978
H    0.00894453   2.19552029   3.30437864
H   -1.40193863   2.28424338   2.76268490
O    0.95868162   2.91543383   0.22623292
H    0.13325313   3.36139824   0.03645571
H    0.76627934   1.98734463   0.09257793
O   -1.45918061   3.89887365  -0.63409823
H   -1.25415939   3.31704394  -1.36599463
H   -1.94732811   3.34982953  -0.02050682
O   -3.25592080  -1.18105561   0.03744449
H   -2.35240353  -0.97968203   0.28103651
H   -3.43417312  -0.61423817  -0.71300600
O   -0.41911149   2.16929167  -2.59193667
H    0.49064708   2.44630972  -2.48316077
H   -0.56932032   1.55215677  -1.87582657
O   -0.21412695  -0.12471859  -4.09742805
H   -0.46877914  -0.70195224  -3.37757707
H   -0.26699194   0.75686832  -3.72831876
O    3.61885220  -1.38570083  -0.05996556
H    3.49790341  -0.69017408  -0.70637547
H    3.09489517  -1.10856927   0.69163205
O    2.79226724   0.39908868  -1.92689656
H    2.61418190  -0.18844071  -2.66128520
H    2.00894314   0.34340656  -1.37959891
O    2.15877915   3.01622060  -2.19033211
H    2.51238264   2.12693009  -2.20927454
H    1.84009952   3.12874355  -1.29477992
O    0.19516123  -3.25037377   0.74598589
H    0.86674201  -3.29437458   0.06534278
H   -0.11352883  -2.34467773   0.72035437
O   -2.12883861  -3.55578898  -0.69658106
H   -2.61911596  -2.79300916  -0.38994299
H   -1.36025002  -3.59182915  -0.12719145
O    0.62533034  -2.42214922   3.34389416
H   -0.08695810  -1.78732744   3.42056448
H    0.48089395  -2.84375894   2.49677244
O    1.67555157   2.10162166   2.72618475
H    1.48531225   2.49861677   1.87622255
H    1.82406624   1.17636672   2.53104753
O   -1.30949193  -0.47189862   3.23546960
H   -1.09830446   0.43324306   3.46427133
H   -1.09893977  -0.53939716   2.30415677
O   -3.87681604   0.01739494   2.41863057
H   -3.80202738  -0.42196357   1.57151629
H   -3.05206979  -0.17744487   2.86367319
C   -0.44836727   0.33288150   0.27472531
O   -1.40421755   0.75000987  -0.61370732
O    0.76564075   0.26969785  -0.35716957
O   -0.78008359  -0.90776835   0.75277597
