64
Energy:  -1797.12166748
O    0.64385013  -1.06996212  -2.31767663
H    0.43434529  -0.62612065  -1.49588327
H    0.00141911  -1.77687840  -2.37918772
O    1.96298577  -0.91738332   2.01903004
H    1.45858010  -1.67811968   2.30727814
H    1.43789618  -0.53330190   1.31689456
O    2.64440029  -2.78220807  -1.51514841
H    3.17767793  -2.29035818  -0.89070426
H    1.99260389  -2.15223069  -1.82259241
O   -2.57019502   1.79364419   1.35028107
H   -2.14341489   1.64994758   2.19493594
H   -2.00124896   1.35674966   0.71651820
O   -0.11975630   0.96053889  -3.97212607
H    0.13567725   0.19181097  -3.46218202
H   -0.09704791   1.68309891  -3.34473210
O   -1.38929985   1.05833238   3.72718443
H   -0.44435281   1.20251749   3.67700886
H   -1.51451156   0.16977900   3.39397764
O    1.00508929   2.79823749   1.14768198
H    0.19884031   3.27594091   0.95276184
H    0.87071800   1.93288835   0.76122750
O   -1.29894946   3.96768243   0.25375869
H   -0.98320250   3.59838846  -0.57095802
H   -1.83673582   3.27461786   0.63674586
O   -2.76440300  -1.45794032  -1.02448357
H   -1.98757717  -1.10781081  -0.58838405
H   -2.93186875  -0.84781906  -1.74277259
O   -0.05871510   2.69535486  -1.86217372
H    0.84672679   2.90108864  -1.62962172
H   -0.27337375   1.92647450  -1.33399146
O   -2.57020155   0.65642452  -2.73714043
H   -2.12579052   0.76354491  -1.89615535
H   -1.87292502   0.73263987  -3.38846870
O    4.00888708  -1.18023188   0.20489408
H    3.78689941  -0.47120983  -0.39862979
H    3.36028948  -1.11098592   0.90543530
O    2.99560471   0.65770601  -1.57831896
H    2.68185647   0.26259347  -2.39175610
H    2.25200582   0.59534571  -0.97881605
O    2.49863573   3.30172552  -1.07090886
H    2.79708872   2.41929184  -1.29106441
H    2.08776963   3.20864842  -0.21139880
O    0.53883339  -3.57211276   0.00094167
H    1.36765995  -3.45619558  -0.46364589
H    0.19430461  -2.68481834   0.10213642
O   -1.06806656  -3.22287000  -2.20991693
H   -1.74185864  -2.66613645  -1.81968131
H   -0.54420562  -3.52231329  -1.46685888
O    0.41579077  -3.11117525   2.72857522
H   -0.40081713  -2.61266172   2.75803100
H    0.47161589  -3.42724644   1.82679120
O    1.31686860   1.36050614   3.44115193
H    1.23709098   1.96414997   2.70258473
H    1.58202769   0.53041189   3.04508875
O   -1.77623227  -1.36347372   2.53446933
H   -1.24075965  -1.12534007   1.77763824
H   -2.67735420  -1.21844368   2.24606438
O   -4.04819079  -0.52808143   1.23297362
H   -3.70799308  -0.90020151   0.41932503
H   -3.65526469   0.34343097   1.28100547
C   -0.27714979   0.15859745   0.31672292
O   -0.43404139  -1.20201336   0.28383481
O   -1.15315707   0.74045997  -0.56142630
O    1.00695055   0.47859069  -0.03890447
