64
Energy:  -1783.69395645
O    0.98194181  -1.41454238  -1.79275833
H    0.66013735  -0.81189463  -1.12231861
H    0.69437185  -2.27829483  -1.49701002
O    1.67267123   0.18956961   2.62028929
H    1.21052635  -0.52195739   3.06344084
H    1.24127869   0.26236381   1.76891785
O    0.57014386  -4.19743124  -3.57948175
H    0.62226725  -3.26237079  -3.77741344
H    0.35352100  -4.23381437  -2.64782589
O   -2.81229836   1.91782939   0.59725311
H   -2.55290740   2.06497443   1.50681153
H   -2.10142485   1.39487290   0.22656833
O    0.21463724  -0.12450265  -4.03152085
H    0.51368469  -0.63530836  -3.27927089
H    0.16870936   0.77511045  -3.70776361
O   -1.94567434   2.00019178   3.19352237
H   -1.03666891   2.29986620   3.18185108
H   -1.88598231   1.04908057   3.10376613
O    0.86527189   3.32297604   0.42647257
H    0.05017673   3.62791451   0.02789478
H    0.82789765   2.36958148   0.34983168
O   -1.45623870   3.82780916  -0.93313441
H   -1.00682296   3.27470282  -1.57214202
H   -2.00002538   3.22098686  -0.43084506
O   -2.16050975  -2.12848237  -0.58665447
H   -1.50041777  -1.57760680  -0.16588550
H   -2.26872484  -1.74953064  -1.45895999
O    0.15517325   2.16524218  -2.48490395
H    1.04901444   2.44826749  -2.29209199
H   -0.06030048   1.55413970  -1.78037810
O   -2.22914894  -0.56959361  -2.84828289
H   -1.92221182  -0.08926057  -2.07932150
H   -1.50094803  -0.52157898  -3.46767766
O    3.65346485  -1.14114289   1.28744338
H    3.60091102  -0.71272897   0.43308311
H    3.06060093  -0.63759912   1.84528555
O    3.17481738   0.21483686  -1.06112010
H    2.86326587  -0.46962963  -1.65329670
H    2.40222708   0.46278433  -0.55332276
O    2.65233332   2.90721750  -1.64820588
H    2.93345601   2.00503145  -1.49568634
H    2.14529478   3.13555676  -0.86910066
O    1.42494151  -2.74564811   1.20675199
H    2.29249625  -2.34146223   1.19210978
H    0.82522040  -2.03495288   0.97986277
O   -0.01330789  -3.81544285  -0.88241978
H   -0.82627652  -3.32773264  -0.75031142
H    0.51730552  -3.61050211  -0.11256229
O    0.39231431  -2.01929860   3.66332854
H   -0.46039208  -1.66046257   3.41764507
H    0.73029705  -2.40852525   2.85679141
O    0.69787902   2.71434668   3.08698333
H    0.75090975   3.05145335   2.19267987
H    1.06924848   1.83372142   3.03391980
O   -1.85379000  -0.69212524   2.71005907
H   -1.24049221  -0.63867094   1.97709229
H   -2.71413515  -0.77047682   2.29787088
O   -3.95060956  -0.62214480   0.94077337
H   -3.39900722  -1.16599136   0.37845884
H   -3.66491658   0.27393997   0.76288726
C   -0.27088008   0.37904460   0.33837349
O   -1.03187758   0.54389040  -0.78886519
O    1.01199196   0.78914184   0.08706022
O   -0.26618894  -0.94368059   0.69636268
