10
Energy:   -323.45357053
O   -1.78891431  -0.74082833   0.00542034
H   -2.56968522  -0.84415417  -0.53859474
H   -2.09812907  -0.88756832   0.89933614
O    0.53654170   0.25344866  -1.78311659
H    0.70335694  -0.47128902  -2.38574403
H    0.40853361   1.01322211  -2.35108673
O    1.26520160   0.51005060   1.72303120
H    2.05690902   1.03125034   1.58968184
H    1.28910030   0.26999924   2.64933355
Li   0.21441257  -0.16526598   0.24995561
