10
Energy:   -321.23592629
O    0.14006736  -0.14077686   2.10064038
H    0.83163542   0.15876675   2.69075825
H   -0.54848855  -0.46338864   2.68205612
O    0.60754119  -1.53258708  -1.49672628
H    1.04095179  -0.96368126  -2.13291278
H    0.08418121  -2.13225777  -2.02844165
O   -0.62995144   1.45911422  -0.56312097
H   -1.25283963   2.03236645  -0.11632792
H   -0.38687410   1.93940669  -1.35461601
Li   0.05586903  -0.27068794   0.22155884
