10
Energy:   -330.90530330
O    1.46950787   0.31177053  -1.62286192
H    1.54905309   1.07593279  -2.19379138
H    1.98781656  -0.36642770  -2.05603061
O   -1.15944722   1.16907068   0.33918150
H   -1.89511230   0.99743455   0.92703333
H   -1.13276010   2.12263502   0.26022132
O   -0.16468630  -1.53774756   1.23494716
H    0.08473639  -1.29342093   2.12619609
H   -0.77221360  -2.26880440   1.34763396
Li  -0.05220181  -0.20232998  -0.37891966
