10
Energy:   -321.64986420
O   -0.92832879   1.39642343  -1.40055463
H   -0.20096926   1.92767727  -1.72451346
H   -1.67669888   1.99318022  -1.39311238
O   -0.33878668  -0.45587154   1.70492143
H   -0.09217500  -1.23174932   2.20833795
H   -0.63569525   0.17274154   2.36289008
O    1.16161995  -1.03312179  -0.54152767
H    1.63525514  -0.86319206   0.27273607
H    1.77062639  -1.54861902  -1.07030514
Li  -0.71881508  -0.34620934  -0.32641043
