10
Energy:   -320.50175868
O   -0.83441670   1.05647298  -0.89407166
H   -0.49425420   1.94367698  -0.77835483
H   -1.58974444   1.16258124  -1.47239069
O   -0.99638328  -0.93798071   1.32020192
H   -0.33569961  -1.27019000   1.92795674
H   -1.67988505  -0.57514165   1.88358899
O    1.71289785  -0.34683687  -0.45670859
H    1.95624862   0.55371071  -0.24217119
H    2.48422544  -0.70586137  -0.89532802
Li  -0.17891041  -0.85248513  -0.42416077
