10
Energy:   -327.79082440
O    2.09815032   0.47895082  -0.16363124
H    2.57770031   0.83341122  -0.91237784
H    2.71657937  -0.11898659   0.25618805
O   -1.24425567  -1.08920596  -1.09420608
H   -1.90225702  -0.53840875  -1.51833874
H   -1.31639311  -1.93421334  -1.53804227
O   -0.89150636   0.67848006   1.33374118
H   -0.93591741   0.12421805   2.11287733
H   -1.15768408   1.54529126   1.64036735
Li   0.08586648  -0.01894131  -0.17825512
