10
Energy:   -326.35927341
O    0.75476559   0.75936897   1.87509297
H    1.36970812   1.21038423   2.45359341
H    0.16009947   0.30014792   2.46815290
O    0.72044447  -1.27324414  -1.52778150
H    0.34857406  -1.07115331  -2.38632885
H    0.74661641  -2.22958014  -1.49666331
O   -1.21187501   0.66347206  -0.40615725
H   -1.65377374   1.51247664  -0.41834685
H   -1.92136238   0.02289854  -0.45640762
Li   0.61251721   0.02655357  -0.08236801
