10
Energy:   -324.63033319
O   -0.30308840   0.31821780  -2.15605080
H   -0.05676476   1.02259200  -2.75556185
H   -0.71519821  -0.34003915  -2.71559984
O    1.11139369   1.10663298   1.42170158
H    1.76044664   1.66675593   1.84740617
H    0.47424560   0.91237523   2.10911563
O   -0.66964965  -1.38253079   0.60201914
H   -1.61489165  -1.50080138   0.69562198
H   -0.29213514  -1.88728966   1.32238926
Li   0.25936088   0.06878360  -0.33702847
