10
Energy:   -320.18146119
O   -1.75533351   0.76353848   0.95055774
H   -2.61246121   1.18640076   0.89810349
H   -1.64977095   0.54924977   1.87747130
O    1.10601311  -1.84116273   0.01412667
H    1.86952155  -1.96628310   0.57771483
H    1.16806098  -2.54335152  -0.63341700
O    0.46905631   1.13283089  -1.03392731
H    0.71949645   2.05469311  -0.97325085
H    0.96506368   0.79806810  -1.78101661
Li  -0.20440837  -0.18514057   0.15955575
