10
Energy:   -327.24122786
O    0.58480295   1.72365771  -0.71194667
H    0.95678320   2.40792516  -0.15549307
H    0.89489145   1.93539322  -1.59242667
O    0.00310306  -1.59167852  -1.22440180
H    0.74469719  -1.61053784  -1.82931033
H    0.07826853  -2.40609892  -0.72710771
O   -0.81268777  -0.19724365   1.76004961
H   -0.53663827   0.48848044   2.36817049
H   -1.30269521  -0.81561947   2.30202368
Li  -0.55022230   0.11433561  -0.10522947
