10
Energy:   -321.30076259
O    0.29217044  -1.14310414  -1.69340619
H   -0.03640042  -0.67821042  -2.46291699
H    0.07009501  -2.06021060  -1.85412358
O    0.82058879  -0.30727087   1.87024106
H    0.51322167   0.06123245   2.69846965
H    1.63102008  -0.76353020   2.09664866
O   -0.97354583   1.32724132  -0.17296785
H   -0.99787115   2.03598074  -0.81587419
H   -1.78912774   1.42152578   0.31913828
Li   0.44424509   0.19580538   0.01430265
