73
Energy:   -667.51314566
C    3.64167533   0.38681307   1.94505433
H    4.70410388   0.31553241   2.05024385
H    3.34446182  -0.05720027   1.01800774
H    3.16778120  -0.12739981   2.75493614
C    3.22239025   1.86853604   1.96228977
N    2.91021345   2.97174615   1.97512234
C    1.72613923   0.42377695  -4.35626792
H    1.82483309   0.60395265  -5.40636145
H    1.14635207  -0.46171488  -4.19926420
H    2.69638177   0.29620830  -3.92353851
C    1.02212872   1.62251054  -3.69369190
N    0.49796089   2.51502218  -3.20037394
C   -0.22084458   2.89931253   3.78739251
H   -1.12809498   3.10785359   3.25984391
H    0.57546596   3.48014657   3.37095473
H   -0.34309046   3.15042441   4.82029999
C    0.11476915   1.40178640   3.65941237
N    0.36464883   0.28681013   3.56412533
C   -3.12489706  -0.65640459   3.14231312
H   -2.73350909   0.28345940   3.47151112
H   -3.13297463  -1.34572442   3.96064803
H   -4.12272165  -0.52029513   2.78076176
C   -2.24045441  -1.21289778   2.01108524
N   -1.58194665  -1.62723225   1.16883466
C    0.05771129   3.41984816   0.07217681
H   -0.22334416   3.73806991  -0.90998557
H    0.94057987   3.94176863   0.37720331
H   -0.73664916   3.63220975   0.75686149
C    0.33483597   1.90502676   0.06131213
N    0.54116789   0.77717337   0.05322288
C    1.16132996  -2.99704313   3.89909031
H    1.44770748  -2.16423840   4.50681094
H    1.73278250  -3.85689640   4.18014804
H    0.12003189  -3.19945464   4.03918674
C    1.42538721  -2.66679162   2.41827712
N    1.62198983  -2.42090436   1.31574439
C    4.79515888  -1.89060276  -1.42798589
H    5.21433859  -0.94180331  -1.69060376
H    5.23615618  -2.65510575  -2.03292857
H    4.99212110  -2.09425497  -0.39617643
C    3.27366591  -1.86274490  -1.66438195
N    2.14084524  -1.84200346  -1.84038956
C    0.42921040  -5.92391881  -2.54825326
H    0.77290141  -6.68717055  -1.88175236
H    1.22736325  -5.63232317  -3.19850177
H   -0.38610534  -6.29953120  -3.13055443
C   -0.04074681  -4.70448337  -1.73356472
N   -0.39065132  -3.79655825  -1.12699206
C    3.43594128   4.05647374  -1.48092684
H    2.52710031   4.30539552  -1.98782548
H    4.26193972   4.51369491  -1.98448861
H    3.39123208   4.41269610  -0.47295570
C    3.61952073   2.52745910  -1.47734414
N    3.75620397   1.38903821  -1.47467666
C   -3.86626354  -3.09665918  -1.22591526
H   -3.29860119  -3.56795832  -0.45097219
H   -3.25034636  -2.96810963  -2.09137475
H   -4.70756017  -3.70923021  -1.47466374
C   -4.35889592  -1.72170920  -0.73762655
N   -4.72568312  -0.69799643  -0.37407341
C   -5.54181586   2.36290697   0.83349941
H   -5.76696998   1.92464837  -0.11630858
H   -5.83439076   3.39212270   0.82975753
H   -6.07548265   1.84319438   1.60161247
C   -4.02858917   2.26036789   1.10039024
N   -2.90192312   2.18402289   1.29910260
C   -2.75902703   1.56584729  -2.35619072
H   -2.47497658   2.24742134  -1.58180559
H   -3.79793094   1.32880287  -2.25930054
H   -2.58361942   2.01700386  -3.31043859
C   -1.92505668   0.27672641  -2.23677203
N   -1.30412785  -0.68308268  -2.14785939
Na   0.19076203  -1.54636662  -0.44414632
