73
Energy:   -663.52196330
C    4.03754511   1.13914326  -0.27675831
H    4.61793462   0.62788774   0.46261033
H    4.51297680   2.06471653  -0.52611330
H    3.96033508   0.53034106  -1.15328417
C    2.62907405   1.41905598   0.27953132
N    1.58040333   1.62746372   0.69371424
C   -3.98566233  -1.87990654  -0.30928382
H   -5.02928706  -2.10613480  -0.24169392
H   -3.73981055  -1.11574504   0.39818575
H   -3.41543199  -2.75990655  -0.09636027
C   -3.65817052  -1.38758524  -1.73124333
N   -3.41433798  -1.02102966  -2.78995682
C    1.24512061   5.03786294  -2.10999987
H    1.07354661   6.06577768  -1.86740178
H    1.16360093   4.90275527  -3.16830018
H    2.22560513   4.75442735  -1.78873135
C    0.19821970   4.16082196  -1.39838368
N   -0.58124562   3.50782508  -0.86855308
C   -4.38032204   2.45822283  -2.33159983
H   -3.87588788   3.31719181  -2.72226418
H   -5.39895534   2.70832242  -2.12009218
H   -4.34934651   1.66795684  -3.05230731
C   -3.68484002   1.99938459  -1.03646577
N   -3.16702205   1.65775866  -0.07217959
C    1.07324796  -2.77894751   6.28848384
H    1.44460849  -2.42428982   7.22721142
H    1.88292117  -2.86552281   5.59434186
H    0.61620464  -3.73679679   6.42462805
C    0.03124108  -1.78619702   5.74051656
N   -0.74458040  -1.04704916   5.33253001
C   -2.82955576   1.53720548   4.74956614
H   -2.30348024   1.60932642   5.67851355
H   -3.11970408   0.52102739   4.58195010
H   -3.70176050   2.15601706   4.78464041
C   -1.91379012   2.00531679   3.60333532
N   -1.23196098   2.35384693   2.74991437
C   -0.42103128   0.30421815  -4.19385915
H    0.32679146  -0.37584300  -4.54482662
H   -0.20590528   1.28824882  -4.55483498
H   -1.38072116  -0.00514335  -4.55189529
C   -0.42572159   0.31197861  -2.65388584
N   -0.42921375   0.31775661  -1.50730572
C    3.81484964   0.63410243  -4.96519566
H    3.41472370  -0.35797421  -4.98934827
H    4.84847127   0.59523467  -4.69130751
H    3.71878131   1.08108302  -5.93260371
C    3.04135462   1.47457530  -3.93228191
N    2.46545242   2.10034555  -3.16323068
C    2.10841165  -2.17878911  -0.18160208
H    1.45279601  -1.47009719   0.27972651
H    3.07782718  -2.11209641   0.26637638
H    1.71945629  -3.16616069  -0.04481692
C    2.21657955  -1.87368582  -1.68719554
N    2.29711547  -1.64652255  -2.80817832
C   -0.68170370  -3.12030770   2.44253148
H   -0.93383685  -3.82245281   1.67551041
H   -1.28856494  -3.30107801   3.30505140
H    0.35018243  -3.23160360   2.70276854
C   -0.93053901  -1.68938409   1.93053675
N   -1.11580822  -0.62399642   1.54933341
C   -0.83417203  -3.43386220  -3.72169757
H   -0.96479935  -4.43118003  -4.08665487
H    0.11168332  -3.05538167  -4.04882021
H   -1.61763705  -2.81046576  -4.09913436
C   -0.87988711  -3.44042397  -2.18239023
N   -0.91392407  -3.44530951  -1.03630595
C    1.75750772   1.29932524   4.22986833
H    2.59157774   1.56659725   4.84451706
H    0.87981092   1.21609410   4.83618506
H    1.60675578   2.05324553   3.48570628
C    2.03726829  -0.05064006   3.54362661
N    2.24556275  -1.05575060   3.03268846
Na  -0.82692750   1.53479865   0.52424415
