73
Energy:   -663.41776587
C   -2.11802318  -5.58718865   1.52992104
H   -2.05836784  -5.88745880   0.50465071
H   -2.92696304  -4.89774955   1.65316519
H   -2.28554002  -6.44709884   2.14424315
C   -0.79851219  -4.90967193   1.94400057
N    0.18392371  -4.40522993   2.25230161
C    1.14969872  -3.30528749  -0.86057642
H    1.65022070  -3.74390859  -0.02272831
H    1.86970655  -2.84897187  -1.50730966
H    0.61927865  -4.06438840  -1.39659829
C    0.15645482  -2.23821460  -0.36416730
N   -0.58306041  -1.44373034   0.00543185
C   -5.16922467   0.62149276   2.28055807
H   -6.09589825   0.91929562   1.83615992
H   -4.95155136   1.25847674   3.11228448
H   -5.24430828  -0.39142059   2.61711132
C   -4.04072801   0.73393672   1.23870797
N   -3.20051095   0.81765637   0.46300320
C    2.13341673   2.02107090   3.05514744
H    2.99225002   1.55822678   2.61573776
H    1.98348457   1.63191447   4.04052895
H    2.28650199   3.07870109   3.10883523
C    0.89279849   1.72511743   2.19208434
N   -0.03089819   1.50476661   1.54949464
C    0.27511566   2.49400247  -4.43583653
H   -0.69094568   2.71140381  -4.03042029
H    0.47662732   1.44789967  -4.33603136
H    0.29657095   2.76419393  -5.47093813
C    1.34461801   3.29784079  -3.67320379
N    2.14091112   3.89633496  -3.10538905
C    3.19101456  -3.25020102   3.09593839
H    4.14822912  -3.15335589   3.56419205
H    3.18125301  -4.12658341   2.48213247
H    2.43325891  -3.33227204   3.84691763
C    2.91799167  -2.01012699   2.22457457
N    2.71471372  -1.08683551   1.57580460
C   -4.31543420  -2.46300652  -0.78553691
H   -4.08669370  -1.43466807  -0.97288152
H   -4.46281564  -2.61013378   0.26400174
H   -5.20734136  -2.73165405  -1.31206252
C   -3.14884879  -3.34464183  -1.26864937
N   -2.28027293  -4.00105940  -1.62834856
C   -0.07923146   5.64385143  -0.71109984
H   -0.86322214   6.36288670  -0.82619582
H    0.69885770   5.84856093  -1.41648653
H    0.31516010   5.70205539   0.28185871
C   -0.63836769   4.23057681  -0.95933664
N   -1.05467003   3.17832961  -1.14416022
C    3.77728549   1.17182683  -0.83717000
H    4.33989444   0.27467058  -0.99040843
H    3.83839017   1.45982096   0.19153048
H    4.17667974   1.95241460  -1.45041225
C    2.30477233   0.92510159  -1.21457119
N    1.20841935   0.74140344  -1.49556352
C   -0.72983764  -1.36039459   3.51207418
H   -0.36865663  -2.06657825   4.23023370
H   -0.86051820  -0.40832303   3.98258606
H   -0.02276362  -1.26983553   2.71411148
C   -2.07924641  -1.84462757   2.94974474
N   -3.08394257  -2.20516103   2.53106491
C    4.31783851   5.65428731  -1.02432158
H    3.99013788   6.67143990  -0.97034859
H    4.25964645   5.31408309  -2.03712653
H    5.32971728   5.58698119  -0.68304406
C    3.41688492   4.77685663  -0.13550325
N    2.74608401   4.12356961   0.52626240
C   -1.48830508  -2.07729104  -4.42641288
H   -2.44955504  -2.34891898  -4.80997118
H   -1.04996588  -2.91971467  -3.93338118
H   -0.85693508  -1.76776758  -5.23292775
C   -1.64440561  -0.91936990  -3.42319244
N   -1.76062954  -0.05724497  -2.67624921
Na  -1.03161607   0.85903751  -0.54783449
