73
Energy:   -663.80031121
C    1.65202011   2.77669845   2.62109594
H    2.10893165   3.32599015   1.82459695
H    2.28745597   1.96364152   2.90404256
H    1.50419947   3.42285868   3.46105136
C    0.29260520   2.22633449   2.15131873
N   -0.71954099   1.81656351   1.80154824
C    2.72113597   3.09630050  -3.20596103
H    3.47289802   2.33911846  -3.12577780
H    3.18570720   4.04163840  -3.39413362
H    2.05899867   2.85757885  -4.01186751
C    1.92350660   3.16907758  -1.89063183
N    1.32963529   3.22326342  -0.91130946
C   -1.04356931   5.33765057   0.94269275
H   -1.20220969   4.96343351   1.93248819
H   -1.12275097   6.40470383   0.94785946
H   -0.06826640   5.05400175   0.60620106
C   -2.10499239   4.74872556  -0.00501416
N   -2.89527012   4.31024412  -0.71062504
C   -0.66209090  -0.69671956   5.21830700
H   -1.40976747  -0.15637808   5.76044262
H    0.23373771  -0.11368325   5.16872020
H   -0.45865153  -1.62148103   5.71663193
C   -1.16812062  -0.98257908   3.79218700
N   -1.54488274  -1.19541449   2.73037584
C   -1.36676020   2.89113617  -3.39191384
H   -0.66573783   2.54254361  -4.12126358
H   -0.97617113   3.76292447  -2.90991339
H   -2.29120359   3.13358794  -3.87307975
C   -1.60735764   1.78917412  -2.34339463
N   -1.78649338   0.96871329  -1.56272443
C    3.12013861  -3.54876427  -2.61874650
H    2.17490926  -4.00817028  -2.81971358
H    3.90711643  -4.18622430  -2.96401410
H    3.17457140  -2.60817971  -3.12593171
C    3.26956027  -3.32383536  -1.10260661
N    3.38081149  -3.15636556   0.02622845
C    2.96548902   0.20691167  -0.10245304
H    3.01078063   1.21718919   0.24710123
H    3.29347968   0.16657497  -1.12014365
H    3.59958819  -0.40816070   0.50128805
C    1.51561023  -0.30383453  -0.00977188
N    0.43610956  -0.68410828   0.05923346
C    0.26949972  -3.87859610   1.47544108
H    0.77053472  -2.94938137   1.64986611
H    0.86258366  -4.68144955   1.86089779
H   -0.68079649  -3.86919410   1.96711966
C    0.06250211  -4.07399409  -0.03802237
N   -0.09161701  -4.21947678  -1.16486470
C    3.92053548  -2.78733083   3.29839435
H    3.42785717  -3.67319177   2.95573030
H    4.26570322  -2.93601295   4.30021866
H    4.75382321  -2.57381463   2.66204421
C    2.93352729  -1.60566377   3.26556475
N    2.19865482  -0.72585893   3.24112162
C   -3.68627576  -4.30275277  -1.36979365
H   -4.36635563  -4.09733614  -2.16991587
H   -4.18386972  -4.87871451  -0.61775148
H   -2.84948101  -4.85366960  -1.74551201
C   -3.19566385  -2.97653405  -0.75983966
N   -2.83038098  -1.98910394  -0.30570120
C   -5.79660661   2.79305940   0.16746892
H   -6.73891859   2.29314060   0.08362678
H   -5.51380359   3.18358607  -0.78773288
H   -5.87984459   3.59545802   0.87041059
C   -4.72760434   1.79564635   0.65120578
N   -3.93168356   1.05302700   1.01136986
C   -0.52608450  -1.72683470  -3.37131231
H   -1.26373671  -1.37702680  -4.06297974
H   -0.94911782  -1.76829697  -2.38936384
H   -0.20054208  -2.70408342  -3.66097792
C    0.67589942  -0.76411259  -3.37219805
N    1.57083108  -0.04732221  -3.37285752
Na  -1.82472877  -0.01684516   0.63592289
