73
Energy:   -665.55577303
C    1.60722893   1.59942016   1.47780937
H    2.22301005   0.97219377   2.08797398
H    0.91208986   2.12739117   2.09662063
H    2.22178956   2.30075332   0.95307504
C    0.83693576   0.73287669   0.46422619
N    0.26341749   0.08769569  -0.29043256
C    2.54874351  -2.45106033   2.78742767
H    3.36311291  -3.14125508   2.86046102
H    1.92508419  -2.54249537   3.65205926
H    2.93098561  -1.45347881   2.72725143
C    1.72411922  -2.76186992   1.52449768
N    1.11014895  -2.99328179   0.58418889
C    0.29504114   4.66671773  -0.77944427
H   -0.26510638   5.56833636  -0.64446726
H    1.19648125   4.88344520  -1.31361093
H    0.53787530   4.25123742   0.17622658
C   -0.54566624   3.65511461  -1.58036264
N   -1.17161109   2.90193011  -2.17668278
C    5.73275378   1.48821609  -0.29332647
H    6.63237664   1.41347438   0.28112332
H    5.24892986   2.41819863  -0.07897631
H    5.97020820   1.44161899  -1.33560435
C    4.79255557   0.32437154   0.07149294
N    4.09253528  -0.54216363   0.34311758
C   -2.80135820   0.90201686  -4.37674796
H   -2.07703177   1.31304581  -5.04854154
H   -3.19786238   1.68097952  -3.75957642
H   -3.59413134   0.45324421  -4.93800809
C   -2.13217528  -0.16478623  -3.49033644
N   -1.63393818  -0.95906963  -2.83036278
C   -3.21825477   0.94376228  -0.15251623
H   -2.19721441   1.23981263  -0.27388741
H   -3.85917407   1.70001274  -0.55526526
H   -3.38610127   0.02181954  -0.66899298
C   -3.52377198   0.75614377   1.34516815
N   -3.75124343   0.61645326   2.46026226
C   -3.79334568   4.25971152   2.89658741
H   -4.35786646   3.40323984   3.20100936
H   -4.32456793   4.78258589   2.12892576
H   -3.64878638   4.90814739   3.73535593
C   -2.42434969   3.80657855   2.35610567
N   -1.40506996   3.46920046   1.95369245
C    1.49552644   1.17574078  -3.64379139
H    1.10935861   1.88425880  -4.34648393
H    0.68535034   0.63628195  -3.19938396
H    2.14566358   0.49153267  -4.14785493
C    2.28165730   1.91717144  -2.54657727
N    2.86696747   2.46920027  -1.72965148
C   -1.37720438   1.29408559   4.89754962
H   -1.02952817   2.26041195   4.59715855
H   -1.13464852   1.13189557   5.92699615
H   -2.43803341   1.24067282   4.76836782
C   -0.69989537   0.21360295   4.03417848
N   -0.19560802  -0.59086550   3.39135941
C   -1.66439459  -6.62856039  -2.95068654
H   -2.72963101  -6.65645704  -2.85376735
H   -1.23243575  -7.41435071  -2.36686789
H   -1.39621302  -6.75895096  -3.97829348
C   -1.13892832  -5.26979201  -2.45145342
N   -0.74769480  -4.25812719  -2.07975168
C    4.19143979  -2.99909500  -1.97402625
H    4.29636118  -3.93590249  -2.48027068
H    4.30468236  -3.14832441  -0.92055305
H    4.94227012  -2.32021430  -2.32083151
C    2.79680986  -2.41309340  -2.26248683
N    1.75844449  -1.97678858  -2.47725883
C   -2.73387805  -2.82431984   2.95367372
H   -3.32808071  -3.71281589   3.00264463
H   -3.28808549  -2.00199965   3.35559749
H   -1.83804676  -2.96256209   3.52224602
C   -2.37035275  -2.53011003   1.48640076
N   -2.09969163  -2.31105746   0.39394935
Na  -0.28897697  -2.08175316  -1.17764746
