73
Energy:   -663.48605692
C    0.99544855  -0.17675669  -0.84198662
H    0.26298050  -0.01930240  -1.60592306
H    0.57451860   0.06624939   0.11125266
H    1.30041715  -1.20236644  -0.84621769
C    2.21655481   0.72299268  -1.10835207
N    3.12572393   1.39289698  -1.30667326
C    1.27753889   2.51775058  -4.25531910
H    1.11787168   1.60982045  -4.79852205
H    2.26175508   2.51386219  -3.83555432
H    1.17543758   3.35212717  -4.91735393
C    0.23775245   2.62920926  -3.12482313
N   -0.53641581   2.71219531  -2.28311750
C    0.72001237   1.11746614   5.30023683
H    0.62588383   1.37616703   6.33421645
H    1.28254859   1.87337219   4.79322781
H    1.22456379   0.17801772   5.21212550
C   -0.68032394   1.00929390   4.66860640
N   -1.72293797   0.92875474   4.19832884
C    1.36797327  -2.97334917   1.81333257
H    1.41357015  -3.33759033   0.80827065
H    1.28301260  -3.79911669   2.48845388
H    2.25841841  -2.42254105   2.03382512
C    0.14305015  -2.05337653   1.97085625
N   -0.76896079  -1.36841508   2.08813979
C   -2.41481112  -0.14823825  -3.12844705
H   -1.55502019  -0.73309079  -3.38065185
H   -2.32023069   0.82788085  -3.55640164
H   -3.29382721  -0.62237380  -3.51240704
C   -2.52326654  -0.02896866  -1.59690789
N   -2.60401654   0.05983297  -0.45660738
C    4.93746773   0.10537981   1.53042436
H    5.09470289   0.67298354   0.63711405
H    5.09383441  -0.93307399   1.32533351
H    5.62570579   0.42776083   2.28361619
C    3.49556461   0.31906464   2.02726860
N    2.42200220   0.47816271   2.39719172
C    1.40650744  -3.70142778  -3.46952948
H    1.78733630  -3.83748454  -2.47889427
H    2.06661361  -4.16545401  -4.17226598
H    0.43660209  -4.14725704  -3.54314312
C    1.30427761  -2.19609333  -3.77794034
N    1.22816286  -1.07530341  -4.00756624
C    4.97437784  -1.20665395  -2.88135721
H    4.28955295  -1.12900525  -3.69982268
H    5.81597193  -1.79839806  -3.17539357
H    5.30646778  -0.22912243  -2.60020334
C    4.27078486  -1.87365669  -1.68483548
N    3.74692790  -2.37027055  -0.79397066
C    1.43565978   3.72988111   0.69442402
H    1.34295635   4.66404829   1.20788086
H    1.42127752   3.90046530  -0.36179247
H    2.35868389   3.26273025   0.96772909
C    0.26131629   2.81221134   1.08223788
N   -0.61303581   2.12896449   1.37098292
C   -3.56159506   4.12827819  -0.45926135
H   -2.62965668   3.96094913  -0.95765078
H   -3.57109526   5.11355757  -0.04208825
H   -4.36376011   4.03013631  -1.16054482
C   -3.73469877   3.09229030   0.66695541
N   -3.86358235   2.32095023   1.50547498
C   -3.15171804  -3.48851283   0.31121813
H   -3.55684042  -4.45324453   0.08745759
H   -3.87869439  -2.73584027   0.08786080
H   -2.89638287  -3.44090424   1.34921450
C   -1.88983168  -3.25182654  -0.53920671
N   -0.95029992  -3.07560285  -1.17238667
C   -6.35466289  -0.31255338   4.00667015
H   -7.16431651  -0.95131329   3.72145625
H   -6.63694773   0.70885423   3.85854567
H   -6.12105670  -0.47197367   5.03861608
C   -5.11930388  -0.63383453   3.14512124
N   -4.19952294  -0.87304295   2.50365891
Na  -2.31097418   0.49277817   1.90579333
