73
Energy:   -663.92286419
C   -3.47271372  -2.83451422   1.68574007
H   -4.18115415  -2.03421092   1.63547109
H   -3.59436258  -3.36105408   2.60924233
H   -3.63443513  -3.50587259   0.86841319
C   -2.04524518  -2.26227372   1.60527650
N   -0.98242997  -1.83621466   1.54536772
C   -2.59989720  -1.64151323  -2.17853130
H   -3.05549781  -0.94425451  -1.50684794
H   -3.03839695  -2.60780391  -2.04105623
H   -2.75574260  -1.31930519  -3.18689298
C   -1.08875750  -1.71804719  -1.89182702
N    0.03635470  -1.77503021  -1.67836265
C   -1.31125189   3.14925526   0.07893352
H   -2.27548919   2.95196166  -0.34085433
H   -0.81652442   3.90000666  -0.50116661
H   -1.42420625   3.49334005   1.08578309
C   -0.47293737   1.85746256   0.06891401
N    0.15122590   0.89566418   0.06145403
C    2.24446135   1.17045180  -2.94233652
H    2.44147985   1.04281763  -3.98626822
H    1.63787849   0.36146865  -2.59233279
H    3.16893115   1.18205560  -2.40370861
C    1.50338109   2.50178213  -2.71882010
N    0.95161315   3.49301808  -2.55240196
C   -1.76181740   3.50280177  -4.57566085
H   -1.04059696   3.07656458  -5.24129072
H   -1.32366277   4.32993119  -4.05722424
H   -2.60826221   3.84103571  -5.13604293
C   -2.21220385   2.43901068  -3.55727951
N   -2.54753704   1.64696986  -2.79904830
C    3.63230763   1.40083755   3.63062610
H    3.04037183   2.26270868   3.85798124
H    4.41298135   1.67335225   2.95152127
H    4.06180962   1.01534361   4.53163751
C    2.74250272   0.32299115   2.98402394
N    2.08000252  -0.47951448   2.50259923
C    2.13735562   4.66195702   0.66729696
H    2.84515261   5.42053229   0.92899745
H    1.41790294   4.55922843   1.45262095
H    1.63926080   4.93630940  -0.23908674
C    2.87101659   3.32316333   0.46487901
N    3.41726053   2.32637057   0.31416964
C    0.56567077  -5.51706720   2.50973630
H   -0.39341862  -5.79938398   2.12849495
H    0.45788977  -5.14708550   3.50793262
H    1.21303023  -6.36901413   2.51308711
C    1.16945397  -4.41707043   1.61695806
N    1.61899800  -3.59807284   0.95224409
C    5.81412540  -0.22815323  -0.17031394
H    6.24020017  -0.72379967   0.67685492
H    5.80930935   0.82824457  -0.00031516
H    6.39603495  -0.44660265  -1.04126757
C    4.37031043  -0.72081301  -0.38075319
N    3.29532456  -1.08762062  -0.53743478
C   -5.45215795   1.68609211  -0.82480594
H   -5.19847840   1.45072561  -1.83730260
H   -5.45062692   2.74811144  -0.69437711
H   -6.42522427   1.30079935  -0.60211669
C   -4.41898043   1.05086239   0.12420799
N   -3.64973281   0.57790499   0.83079199
C   -1.26907188   0.74108093   3.83067618
H   -1.99339850   0.61839196   3.05273111
H   -1.76879643   0.94825567   4.75385173
H   -0.69581943  -0.15702020   3.92913973
C   -0.33240655   1.91208095   3.47993833
N    0.36498336   2.78394368   3.21879806
C    0.47417555  -5.36584016  -2.13621968
H    0.13616272  -5.33891593  -3.15107070
H    0.86636625  -6.33683639  -1.91655658
H    1.23986541  -4.63175699  -1.99572046
C   -0.70582322  -5.06361270  -1.19395566
N   -1.58438593  -4.83859062  -0.49239727
Na   1.11629218  -1.27802083   0.44525586
