73
Energy:   -663.74564080
C   -3.15658310  -3.78009911  -2.19532849
H   -2.88093602  -4.62990315  -1.60647200
H   -3.46917665  -4.10484690  -3.16575275
H   -3.96034810  -3.26034088  -1.71708976
C   -1.94658487  -2.83768414  -2.33446268
N   -1.04568620  -2.13601336  -2.43805440
C    4.23538166  -4.38626198  -3.62132077
H    3.85216631  -4.75248436  -4.55079769
H    4.48650329  -5.21202786  -2.98890656
H    5.11009729  -3.79750163  -3.80334523
C    3.16655934  -3.51806319  -2.93179216
N    2.37077254  -2.87164973  -2.41840676
C   -1.50878018   4.90358539  -0.68696386
H   -0.64577499   4.85007011  -0.05667953
H   -2.37855604   4.63567038  -0.12428224
H   -1.61769555   5.90102912  -1.05863917
C   -1.34227847   3.93062965  -1.86901051
N   -1.21831038   3.20621987  -2.74909798
C    0.64644741   1.65500321   6.23748617
H    0.21843453   2.63258157   6.31524034
H    1.22510407   1.44829635   7.11345867
H   -0.13497128   0.92969579   6.14686011
C    1.55429333   1.58942487   4.99526426
N    2.23022589   1.54059882   4.07037359
C   -0.45524989   2.09726184   1.91491993
H   -1.23864373   2.79409800   1.70134646
H    0.48215554   2.61235761   1.94401460
H   -0.63770419   1.63488655   2.86245284
C   -0.41431357   1.01845868   0.81669047
N   -0.38383461   0.21524069  -0.00099129
C   -1.41063029  -4.26512656   1.97771205
H   -2.33446260  -4.39391645   1.45345333
H   -1.57394126  -3.65970620   2.84471540
H   -1.03357335  -5.22101489   2.27604855
C   -0.38863495  -3.57535228   1.05503282
N    0.37228703  -3.06178397   0.36805619
C    4.07750058   1.55960722   1.28339929
H    4.56352768   1.17955989   2.15760857
H    3.38427505   2.32455638   1.56480690
H    4.80890617   1.96835206   0.61791255
C    3.32303279   0.41734728   0.57797702
N    2.76129723  -0.43311717   0.05275808
C    2.26142088  -1.88827774   3.24768298
H    2.91882796  -1.05746061   3.39754631
H    2.39064922  -2.27116829   2.25692874
H    2.48788002  -2.65508181   3.95875742
C    0.80331947  -1.42933170   3.43452196
N   -0.28230331  -1.08762552   3.57363208
C    2.43200185   3.41720974  -3.05063319
H    1.55285367   3.52699953  -3.65058724
H    2.94317266   2.51904199  -3.32793842
H    3.07676872   4.25693387  -3.20567564
C    2.03363117   3.34330951  -1.56488773
N    1.73702609   3.28828743  -0.45868271
C   -3.38988804   0.62513819  -1.99481430
H   -3.89785995  -0.30300417  -1.83538880
H   -2.36101227   0.43477755  -2.21859228
H   -3.84300744   1.14363438  -2.81380367
C   -3.48744714   1.48870098  -0.72346009
N   -3.56008433   2.13166273   0.22312091
C   -3.56573866  -0.28393618   2.76846608
H   -3.02505835  -0.71719106   3.58385261
H   -4.60229218  -0.21449657   3.02465745
H   -3.18213836   0.69415583   2.56576942
C   -3.40414928  -1.16803705   1.51792439
N   -3.28383865  -1.82629034   0.58683926
C   -0.56082413   0.82046677  -5.07215368
H   -0.14918927   0.47700926  -5.99816333
H   -0.70579276   1.87963795  -5.11731551
H   -1.50054320   0.33891148  -4.89914599
C    0.40787055   0.48345312  -3.92339243
N    1.12910778   0.23253115  -3.06808746
Na   0.93433983  -1.34759789  -1.24717152
