73
Energy:   -664.46133917
C    3.78155517   2.75179919   2.46026223
H    3.90642511   3.19444416   3.42637460
H    3.72431068   3.52202905   1.71974341
H    4.61531750   2.11528116   2.24911237
C    2.48422827   1.92227477   2.43947407
N    1.51830942   1.30465613   2.42399635
C    0.08708059  -0.40577235  -3.27049082
H   -0.65069941  -1.17484317  -3.36594199
H    0.98993587  -0.71566463  -3.75393494
H   -0.27244176   0.49214277  -3.72808367
C    0.36693952  -0.14519811  -1.77872005
N    0.57530722   0.04881126  -0.66802890
C   -4.41815984   1.05487036   1.08035723
H   -4.63937539   0.17261651   0.51680420
H   -4.81418748   1.91021335   0.57394874
H   -4.86128918   0.97835898   2.05127508
C   -2.89201334   1.20372132   1.22290632
N   -1.75572789   1.31454763   1.32904059
C   -3.04550247  -1.76671566   5.15600188
H   -3.75156339  -0.97103008   5.27116536
H   -2.73025338  -2.10620225   6.12050484
H   -3.50288242  -2.57537867   4.62518476
C   -1.82473821  -1.25943005   4.36606776
N   -0.91582373  -0.88173285   3.77792589
C    0.01342107   3.79716437  -0.09005989
H    0.62303625   4.67642854  -0.10286743
H    0.52729616   3.01438622   0.42771407
H   -0.90868441   4.00971933   0.40938076
C   -0.27642298   3.35237557  -1.53565781
N   -0.49222506   3.02121009  -2.61197117
C    1.36348065  -4.81552797   1.16597399
H    1.34777292  -5.34667140   2.09470436
H    2.20681961  -5.13188151   0.58839375
H    0.46356933  -5.01836123   0.62383251
C    1.46751013  -3.30383488   1.44085923
N    1.54496480  -2.17831067   1.64552379
C    2.96079608   2.30865812  -3.53370067
H    1.95861215   2.52223194  -3.84178147
H    3.22481763   1.31815989  -3.84046602
H    3.62988754   3.01178360  -3.98406749
C    3.06020674   2.41487358  -2.00058757
N    3.13422250   2.49395582  -0.85911517
C    2.47289673  -4.13419170  -3.78796336
H    3.37086477  -4.48379722  -3.32285096
H    2.68326071  -3.24682039  -4.34762241
H    2.09441707  -4.88901915  -4.44514504
C    1.42245302  -3.82178459  -2.70603461
N    0.64034994  -3.58918331  -1.90048947
C    4.13814752  -0.70086638  -0.00662964
H    4.30174039  -1.63370879   0.49130871
H    3.33639808  -0.17742303   0.47097269
H    5.02877860  -0.10981052   0.04162319
C    3.77477229  -0.96231686  -1.48012958
N    3.50422292  -1.15697862  -2.57721727
C   -2.69621486  -3.14442043  -1.39391982
H   -3.73618795  -3.33588175  -1.23052241
H   -2.18813907  -4.06794388  -1.57793756
H   -2.58091612  -2.49922758  -2.23969253
C   -2.09662327  -2.46827003  -0.14695929
N   -1.65020009  -1.96484533   0.78145951
C   -0.95774278   2.77179004   4.61805769
H   -0.26494122   2.02225648   4.93918948
H   -0.95768937   3.58095658   5.31816383
H   -0.66913853   3.13453186   3.65367963
C   -2.37031290   2.16388499   4.53622186
N   -3.42203556   1.71127205   4.47529136
C   -3.59375850   2.27270562  -3.66033739
H   -2.75103663   2.42619141  -4.30155666
H   -3.77201158   3.15861994  -3.08737950
H   -4.45694490   2.05129330  -4.25260838
C   -3.30775319   1.09541257  -2.70966288
N   -3.09480923   0.21886437  -2.00184249
Na  -0.02567889  -0.35144789   1.60948021
