73
Energy:   -664.53470090
C    4.20346425   3.26929105  -2.07083006
H    4.99362915   2.97514874  -1.41202819
H    3.56007352   3.96168473  -1.56929396
H    4.61867114   3.73397979  -2.94063849
C    3.39463019   2.02730019  -2.48897615
N    2.79241647   1.10258153  -2.80030492
C    0.62747354  -0.81801151  -4.51753793
H    0.25584132   0.17901297  -4.40470239
H    0.04219017  -1.33626153  -5.24812631
H    1.64815896  -0.78419627  -4.83684481
C    0.53569248  -1.55575880  -3.16887001
N    0.46735730  -2.10504520  -2.16472544
C   -1.19403088  -0.23225574   4.83007473
H   -0.29629677  -0.49591909   5.34916555
H   -2.03618960  -0.65613180   5.33603607
H   -1.29193192   0.83296646   4.80525253
C   -1.13311348  -0.77583759   3.39048873
N   -1.08775771  -1.18055899   2.31865152
C   -3.78725413   0.73544731   1.08780382
H   -4.82865622   0.48973253   1.08533028
H   -3.48856051   1.01270694   2.07715123
H   -3.21969852  -0.11362679   0.76865980
C   -3.53516450   1.91208036   0.12677027
N   -3.34747231   2.78813715  -0.58876289
C   -0.81148023   4.70733939   1.13969778
H    0.16661424   4.68919717   0.70622084
H   -0.91649470   5.58234334   1.74652488
H   -1.54609971   4.72245235   0.36187716
C   -1.01076022   3.45234541   2.00968490
N   -1.15913323   2.51794535   2.65742987
C    3.64825858  -3.51043233   2.86173620
H    3.25703351  -3.92113826   1.95445247
H    4.01564119  -4.30119733   3.48191345
H    4.44701505  -2.83629282   2.63277527
C    2.53295969  -2.75146793   3.60448879
N    1.70256897  -2.18638443   4.15750187
C    4.30426698  -1.41872149  -1.22618075
H    3.94053584  -1.45756667  -2.23171091
H    4.90796385  -2.28048599  -1.03172991
H    4.89174023  -0.53434509  -1.09331745
C    3.11337129  -1.39535765  -0.25005496
N    2.22669531  -1.37796221   0.47671507
C   -0.71374858  -4.95468932   3.47256045
H   -1.78371826  -4.94995410   3.46603091
H   -0.35939930  -4.35786822   4.28689469
H   -0.36221238  -5.95880903   3.58686263
C   -0.18973855  -4.37529791   2.14541347
N    0.20041074  -3.94391467   1.15729223
C    2.00727598   1.14947147   2.82214348
H    1.46603491   1.67753651   3.57918087
H    2.97558274   0.88646513   3.19377336
H    1.47375860   0.26084072   2.55644878
C    2.16048710   2.04695070   1.58010589
N    2.27455975   2.71516478   0.65535244
C   -3.62342787  -2.80025569  -2.94492839
H   -3.01616338  -2.45060153  -3.75355191
H   -4.56497955  -2.29217979  -2.96036933
H   -3.78443728  -3.85293270  -3.04907334
C   -2.91056977  -2.51967731  -1.60899834
N   -2.37981451  -2.31077395  -0.61433770
C   -4.22458920   2.30275067  -3.80490206
H   -4.41112078   2.44488709  -4.84888644
H   -3.84595745   3.21043384  -3.38341855
H   -5.13609096   2.03413921  -3.31305704
C   -3.18918687   1.17839294  -3.61685497
N   -2.41828277   0.34125751  -3.47684536
C   -0.13499791   2.69111492  -2.01385745
H   -1.06313972   3.22313669  -2.03400205
H    0.11717390   2.37619032  -3.00488266
H    0.63486006   3.33114470  -1.63626019
C   -0.27012664   1.45749067  -1.10198497
N   -0.37073612   0.53900134  -0.42305446
Na  -0.16187451  -1.76615228   0.16543845
