73
Energy:   -665.27580042
C   -2.12062117  -1.36034520   3.22512724
H   -1.56851195  -2.23594387   2.95419817
H   -3.13722570  -1.62744898   3.42530186
H   -1.68794210  -0.92246520   4.10031237
C   -2.07482946  -0.34592593   2.06734631
N   -2.04073546   0.40935533   1.20532579
C   -4.40137609  -5.47064429  -0.30367448
H   -3.98632343  -5.56126032  -1.28572346
H   -5.46895028  -5.44046565  -0.36904805
H   -4.10389669  -6.31093714   0.28819799
C   -3.89037995  -4.17426378   0.35197825
N   -3.50992010  -3.20904956   0.84014151
C    0.33235678   5.41807736  -1.28197015
H    0.69692667   5.70577986  -0.31801152
H   -0.34781738   6.16126164  -1.64244111
H    1.15392849   5.32693885  -1.96139108
C   -0.39585938   4.06553993  -1.17268284
N   -0.93804942   3.05851433  -1.09131346
C    3.84712343   3.76402987   1.11792705
H    3.04175083   4.12152537   1.72494610
H    4.59442856   4.52504397   1.03253570
H    4.27475317   2.89328293   1.56940425
C    3.31522908   3.40743622  -0.28261904
N    2.91920956   3.14193604  -1.32538927
C   -2.27599390   3.70399250   2.32690904
H   -2.41580137   2.95069849   3.07383754
H   -2.60333924   3.33130282   1.37883387
H   -2.84575773   4.57215949   2.58489038
C   -0.78360644   4.07505650   2.24510944
N    0.32754386   4.35133052   2.18420593
C    3.84163925  -2.53787402   3.27267729
H    4.34636188  -1.62437885   3.50864722
H    4.27855768  -2.97089918   2.39718282
H    3.93541651  -3.21920091   4.09237150
C    2.35140820  -2.24878976   3.01336721
N    1.24186345  -2.03355338   2.82029907
C    1.84064442   1.35869364   3.37037368
H    2.88149173   1.11653538   3.42419224
H    1.28524778   0.68488850   3.98877508
H    1.68977175   2.36182844   3.71075157
C    1.35910134   1.23323177   1.91298712
N    1.00057063   1.13981971   0.82789658
C   -4.97276662  -1.35410290  -1.67825498
H   -4.86648887  -2.34997118  -2.05488686
H   -5.74809863  -0.85006679  -2.21649933
H   -5.22572467  -1.39083233  -0.63923513
C   -3.64575578  -0.59336793  -1.85692934
N   -2.65773588  -0.02696617  -1.98996052
C   -0.79333541  -2.21421800  -4.14719117
H   -0.62778538  -2.69421416  -5.08904947
H    0.14585991  -2.04425313  -3.66353512
H   -1.28737777  -1.27843749  -4.30573481
C   -1.67229278  -3.11483071  -3.25953656
N   -2.32671648  -3.78537780  -2.59863735
C   -0.22509168  -4.09010299   0.44827986
H   -0.79878582  -4.71711462  -0.20182139
H   -0.70838707  -4.02686192   1.40081607
H    0.75352524  -4.50480473   0.57169164
C   -0.11229353  -2.68183184  -0.16462219
N   -0.02831017  -1.63330995  -0.62095562
C    3.55049269  -0.41969199  -1.30432797
H    3.60583718   0.47662765  -1.88609105
H    2.53964775  -0.76995510  -1.28414494
H    4.17852717  -1.16778444  -1.74116829
C    4.02179973  -0.12891076   0.13265357
N    4.37270925   0.08758908   1.20255165
C    1.77259985   2.51036482  -4.53454487
H    1.09563893   3.31198512  -4.74437571
H    2.03032284   2.01326161  -5.44633780
H    2.65822005   2.90145648  -4.07888790
C    1.10135684   1.50920644  -3.57604880
N    0.60158591   0.76379851  -2.86240491
Na  -0.68956462   0.67790379  -0.81259641
