30
Energy:   -130.40393448
O   -0.35285994   2.61832619   1.17844498
H   -0.13064185   3.30099622   1.82883256
C   -0.26843929   1.36040545   1.82886203
H   -0.52171164   0.60299203   1.08209350
H   -0.97832394   1.26575876   2.66545220
H    0.74341937   1.14349425   2.20551692
O    1.28114618  -1.55166994   2.45435335
H    1.20564622  -1.50889421   1.48952525
C    1.63150588  -2.88217122   2.80011081
H    1.71239607  -2.91258873   3.89007263
H    2.60048199  -3.19033611   2.37714860
H    0.86951891  -3.61585172   2.49373507
O    1.03293480  -1.34951807  -0.34719237
H    0.30279254  -1.32607656  -0.98340463
C    1.96138994  -0.34388222  -0.72028937
H    2.77714979  -0.38417006   0.00662050
H    1.52731351   0.66778565  -0.69057227
H    2.38814938  -0.50960515  -1.72188291
O   -1.17284806  -0.87261298  -2.04435008
H   -1.27677735   0.08361106  -1.92920860
C   -2.34295293  -1.49653752  -1.54026027
H   -2.20910647  -2.57295015  -1.67776002
H   -3.25306163  -1.19381794  -2.08140751
H   -2.49752214  -1.30613744  -0.46665256
O   -1.24461421   1.85105219  -1.39449181
H   -0.98120952   2.15847164  -0.51441538
C   -0.78713864   2.80587264  -2.33872049
H   -1.09221937   2.44408254  -3.32437706
H    0.30892569   2.91273835  -2.33851015
H   -1.23334328   3.80123306  -2.18727292
