30
Energy:   -127.27745503
O   -0.12698290   2.00412512  -0.11730998
H    0.82356383   1.98551425   0.06853357
C   -0.56196869   3.34944105  -0.00135224
H   -1.63451238   3.35224003  -0.21378434
H   -0.06922620   4.01940059  -0.72325000
H   -0.41322716   3.75876671   1.01013468
O   -2.00964724   0.68181045   1.58891921
H   -1.38892577   1.16084554   1.02001367
C   -1.34510504  -0.47401714   2.07366659
H   -2.05840747  -1.00178154   2.71253245
H   -0.45815523  -0.23178037   2.67981732
H   -1.03838143  -1.15796202   1.26687209
O    0.90520772  -2.28667852  -0.29486385
H    0.39259414  -1.65116191  -0.81617875
C    0.67288054  -3.57621178  -0.83861182
H    1.25764192  -4.27969572  -0.23973815
H    1.00344841  -3.66211878  -1.88557037
H   -0.38498035  -3.87712858  -0.78242690
O   -0.62813830  -0.33824197  -1.63490311
H   -0.50686531   0.53089345  -1.22463521
C   -2.02180079  -0.54563269  -1.79991135
H   -2.14041935  -1.52890790  -2.26314423
H   -2.48757640   0.20170831  -2.46120693
H   -2.56714431  -0.55096859  -0.84317245
O    2.63145394   1.74805068   0.38594069
H    3.51722946   2.00025898   0.08558093
C    2.67054582   0.37368214   0.73539268
H    1.66503534   0.10624504   1.07141540
H    3.37237759   0.16378459   1.55767762
H    2.92948557  -0.27447940  -0.11643721
