30
Energy:   -126.72283195
O    0.50181934  -2.69627682   0.95459542
H    0.00599275  -2.14878773   0.32782995
C    1.79034931  -2.92015273   0.40495566
H    2.33535819  -3.53827180   1.12355106
H    2.35754610  -1.98780547   0.25732870
H    1.75563878  -3.46124444  -0.55358087
O   -1.58739746   1.52209868   0.19500380
H   -1.04667608   1.58811090   0.99605689
C   -2.07262324   2.82097436  -0.10501569
H   -2.67950555   2.72839443  -1.00978529
H   -1.26409946   3.54048391  -0.30841834
H   -2.71044851   3.23155701   0.69334397
O    1.72532152  -0.06777116  -1.60721080
H    0.85043341  -0.45360174  -1.45187623
C    1.55860973   1.33389268  -1.74891276
H    2.55350518   1.75256258  -1.92322213
H    1.14302815   1.80623012  -0.84505070
H    0.92060167   1.60178891  -2.60562429
O   -0.87923337  -0.96560252  -0.85707300
H   -1.25301187  -0.12799880  -0.54541144
C   -1.95120291  -1.76639699  -1.32839378
H   -1.51252855  -2.70581795  -1.67558000
H   -2.48591221  -1.30623027  -2.17403548
H   -2.68398802  -2.00229220  -0.54089345
O    0.09288098   1.56623504   2.46150656
H    0.10894457   1.71848485   3.41805516
C    0.93742218   0.45978999   2.18752974
H    0.90769845   0.30211547   1.10598435
H    0.59731406  -0.46623795   2.67699481
H    1.98416285   0.64176963   2.47734818
