30
Energy:   -128.14012863
O    0.44547729  -1.33882638   1.53403683
H   -0.25991348  -1.50249919   0.89056318
C    0.87370411  -2.59612325   2.03239429
H    1.66819214  -2.39330621   2.75567792
H    1.28618951  -3.24721988   1.24581543
H    0.07128989  -3.14356784   2.55125187
O    2.12382233  -0.05945033  -0.37103043
H    1.61300909  -0.49762088   0.32574764
C    2.37163893   1.27246994   0.04981290
H    2.94782055   1.75147298  -0.74646345
H    2.96378267   1.32226333   0.97699343
H    1.44625250   1.85106162   0.19701671
O   -1.17213106   2.69822135   0.81529380
H   -1.09531459   3.54744237   1.27501781
C   -1.22304591   1.67858815   1.80032658
H   -1.30950670   0.72896597   1.26532428
H   -2.09383430   1.77502006   2.46756401
H   -0.31329140   1.63987106   2.41970130
O   -1.37708931  -1.56148195  -0.59056625
H   -1.61741341  -0.69733847  -0.95652202
C   -0.62852575  -2.25358726  -1.57706339
H   -0.36605184  -3.22459937  -1.14842820
H    0.30536435  -1.73460130  -1.84404689
H   -1.20302757  -2.43169851  -2.49956075
O   -1.73256265   1.10390111  -1.47911294
H   -1.57645077   1.70016427  -0.73176924
C   -0.73419934   1.36375687  -2.45290935
H   -0.92491257   0.68371402  -3.28756820
H    0.28385463   1.16991350  -2.08039330
H   -0.77312734   2.39509422  -2.83710359
