30
Energy:   -129.53679438
O   -1.14649392   1.08882239   2.05166222
H   -1.57726395   0.55664812   1.36635134
C   -0.01548254   0.36582695   2.51060080
H    0.45785943   0.97946183   3.28188856
H    0.72507402   0.18536745   1.71575006
H   -0.28398812  -0.60227682   2.96166307
O    2.55629744  -0.68078093  -0.02721308
H    1.68920536  -1.05229387  -0.24755993
C    3.30255408  -1.69120601   0.63208652
H    4.27617431  -1.25594002   0.87311008
H    3.47160626  -2.57639439  -0.00087494
H    2.83376390  -2.02086922   1.57247754
O   -0.03139555  -1.63292875  -0.61616725
H   -0.80604054  -1.05157314  -0.63550827
C    0.04038935  -2.29615284  -1.86817145
H    0.91830439  -2.94671427  -1.82918163
H    0.16874656  -1.59973666  -2.71156119
H   -0.84164579  -2.92464259  -2.06765072
O   -2.05131044   0.32970448  -0.62557926
H   -1.63114456   1.19374269  -0.74936086
C   -3.45407025   0.51447803  -0.72881404
H   -3.91168118  -0.46835331  -0.58696907
H   -3.76139287   0.89494437  -1.71551334
H   -3.85187173   1.19097605   0.04376718
O   -0.59076926   2.71093830  -0.25638203
H   -0.63689627   2.50622552   0.68933899
C    0.76471415   2.59047093  -0.65723876
H    0.79859381   2.82437297  -1.72477200
H    1.16040485   1.57220856  -0.51814182
H    1.42775905   3.29567418  -0.13203675
