30
Energy:   -125.64001871
O   -2.68816054   1.48176051   0.25294027
H   -2.03123230   1.38063225  -0.45178779
C   -2.00848261   1.93339030   1.41337218
H   -2.76307039   2.04197892   2.19713936
H   -1.52352407   2.91145660   1.26853138
H   -1.24943829   1.21815218   1.76701532
O    1.26312319   0.26374842   1.30650653
H    1.44895055  -0.00077241   0.39331422
C    2.39685698  -0.07104180   2.09078773
H    2.17058626   0.23363492   3.11619441
H    3.30730892   0.45910279   1.77016129
H    2.60725652  -1.15201191   2.09439146
O    1.11779763  -1.17938315  -1.20206081
H    0.61880171  -1.74475799  -0.59396737
C    1.28107308  -1.89298351  -2.41723546
H    1.84499811  -1.24180803  -3.09061816
H    0.32155270  -2.13497433  -2.90049358
H    1.85069281  -2.82669724  -2.28882450
O   -0.38258076  -2.09597955   0.99910668
H   -0.06521876  -1.29110587   1.43486233
C   -1.76393494  -1.92196791   0.72686720
H   -2.10519866  -2.83752617   0.23617652
H   -1.96048511  -1.07727366   0.04816477
H   -2.36282791  -1.78052887   1.64015771
O   -0.59661991   1.04673516  -1.64048804
H    0.01968603   0.29977289  -1.61523657
C    0.17194789   2.23914184  -1.63858397
H   -0.53776109   3.07039155  -1.66725957
H    0.83045854   2.32202030  -2.51737417
H    0.78744443   2.34689379  -0.73175937
