30
Energy:   -140.52715381
O   -1.76625337  -0.08932152   0.24998081
H   -1.50088139  -0.01301143  -0.67855446
C   -3.08750092  -0.60506778   0.27904068
H   -3.37059643  -0.68462539   1.33213741
H   -3.16281476  -1.60719178  -0.17135098
H   -3.81305531   0.05583537  -0.22051430
O   -0.49177594   0.02602042  -2.23757168
H    0.35052829   0.39286520  -1.93037181
C   -0.23696869  -1.27686336  -2.73767257
H   -1.19609472  -1.67533735  -3.07940484
H    0.16085631  -1.95729535  -1.96856601
H    0.45658072  -1.27589428  -3.59310557
O   -0.20129051  -2.43179690   0.85918678
H   -0.74339518  -1.63799982   0.73905357
C    1.15103855  -2.01710950   0.96769600
H    1.74768473  -2.92337733   1.10251873
H    1.32634386  -1.36087661   1.83453150
H    1.51179991  -1.50224981   0.06351235
O    0.28009268   1.34935308   1.56028064
H   -0.53048137   0.93235528   1.23239982
C    0.20728220   1.37702122   2.97677874
H    1.12793009   1.84975956   3.32949835
H    0.14924716   0.37027079   3.41934268
H   -0.64413644   1.96909725   3.34733186
O    1.71866610   1.10463578  -0.85489665
H    1.38027024   1.25277752   0.04062864
C    2.19193377   2.34803281  -1.34735510
H    2.56942553   2.16302617  -2.35669039
H    3.01701560   2.75807248  -0.74412648
H    1.39854928   3.10889530  -1.41373774
