30
Energy:   -128.23691134
O   -0.27705811   1.67678078   1.84926392
H    0.44723054   1.77928813   1.21418797
C   -1.49646220   1.80942096   1.13652692
H   -2.30161944   1.69131285   1.86677174
H   -1.62231324   1.03703383   0.36169986
H   -1.60706801   2.79763471   0.66326455
O   -0.03503142  -1.09853057   2.44481046
H   -0.19157813  -0.14403793   2.39132949
C    1.30658864  -1.33742837   2.05045371
H    1.46593642  -2.41711872   2.11650101
H    2.03785131  -0.84349272   2.70928586
H    1.50695011  -1.02558531   1.01344527
O    0.12201750  -0.24735789  -1.76797512
H   -0.76255581  -0.60109912  -1.59241749
C    0.92796539  -1.31661511  -2.23666560
H    1.92060669  -0.90071146  -2.42946759
H    0.55219005  -1.75247662  -3.17559849
H    1.03442503  -2.12502119  -1.49644719
O   -2.44080197  -1.29109526  -1.14293990
H   -3.40063612  -1.21074609  -1.24631154
C   -2.19557857  -2.00833831   0.05621049
H   -1.10991401  -2.08973519   0.15716692
H   -2.61383268  -3.02687461   0.03560360
H   -2.58353791  -1.49136201   0.94783843
O    1.60846755   1.58076878  -0.25856414
H    1.15258059   0.95261849  -0.83823435
C    2.04195900   2.66874354  -1.05914509
H    2.55329472   3.36661405  -0.39056620
H    1.20680694   3.20403170  -1.53743888
H    2.75311713   2.36337865  -1.84258859
