30
Energy:   -139.61943277
O    0.76870766   1.83649135   1.01848979
H    0.59987758   1.05320899   1.56290546
C    2.15950691   1.87668218   0.74173010
H    2.33212151   2.76482712   0.12781808
H    2.50602785   0.99784129   0.17574489
H    2.77189714   1.96698301   1.65255461
O    0.05552506  -0.68406083   2.08074822
H   -0.60397912  -0.93478167   1.41695866
C    0.24589008  -1.79669205   2.94001924
H    0.99155484  -1.49708215   3.68143895
H    0.62852900  -2.68285795   2.40985439
H   -0.67283612  -2.08219055   3.47593910
O    1.61619862  -0.40304874  -2.10020640
H    0.82137973   0.12694409  -1.93960185
C    1.50735121  -1.58736671  -1.32685204
H    2.41061434  -2.17255856  -1.51959904
H    0.63687568  -2.20046353  -1.60820943
H    1.45546069  -1.38581247  -0.24543602
O   -1.70187223  -1.07720192  -0.07930735
H   -1.44264902  -0.33910571  -0.65065715
C   -3.11596742  -1.05882724   0.03263426
H   -3.39082259  -1.89650249   0.67934904
H   -3.62105777  -1.19560877  -0.93636104
H   -3.49402733  -0.13305480   0.49392965
O   -0.62488422   1.22711027  -1.32608132
H   -0.19182340   1.60600604  -0.54677420
C   -0.64796050   2.22546605  -2.33369584
H   -1.13898605   1.78198801  -3.20415913
H    0.36073657   2.54647535  -2.63744009
H   -1.22138871   3.11719240  -2.03573355
