30
Energy:   -129.77970963
O   -0.02773385   1.58300503  -1.46795711
H    0.74533141   1.93310437  -1.00081278
C    0.41011358   1.11290373  -2.73280026
H   -0.47294778   0.72209039  -3.24558947
H    1.14649544   0.29804967  -2.65197978
H    0.84200068   1.91091913  -3.35683735
O   -1.76017212  -0.38624710  -0.45955243
H   -1.20269163   0.32626023  -0.80592229
C   -3.07128469  -0.19134753  -0.96505393
H   -3.68593705  -1.00239368  -0.56518916
H   -3.11480718  -0.24013569  -2.06437319
H   -3.51404146   0.76377706  -0.64181905
O    2.30413014   2.18383979  -0.00834892
H    2.58065407   1.30550806   0.29246858
C    2.18348165   3.01271279   1.13661714
H    1.87138730   3.99796042   0.77972863
H    3.13518588   3.13139261   1.67786707
H    1.42320530   2.64998663   1.84597384
O    2.83950295  -0.47238369   0.80253942
H    3.46493188  -1.21209347   0.79298122
C    1.52937213  -1.01616937   0.78283833
H    0.83761385  -0.16950994   0.79395104
H    1.31586482  -1.64302360   1.66275067
H    1.32865418  -1.60913303  -0.12318801
O   -1.19901865  -2.89478857   0.70365965
H   -1.41699104  -2.05814347   0.26669708
C   -1.97246194  -2.97495978   1.89020583
H   -1.71462563  -3.92310438   2.36981759
H   -3.05580966  -2.97595788   1.69238258
H   -1.74940259  -2.16211873   2.59894506
