30
Energy:   -126.02671156
O   -2.12181885   2.26782954   1.66908792
H   -2.35074821   3.19447788   1.83442836
C   -1.08810742   1.91193246   2.57314086
H   -0.84244397   0.86542647   2.37324117
H   -1.39751758   1.99470512   3.62679705
H   -0.17446270   2.51018003   2.43125889
O    1.38130717  -0.22258760   1.33053227
H    1.45750545   0.37037908   0.56829372
C    2.53966307  -1.04116446   1.35655791
H    2.43743947  -1.70278440   2.22101993
H    3.46771302  -0.46097963   1.47856681
H    2.63761560  -1.66813324   0.45650636
O    0.11987073  -1.06122292  -2.39297241
H   -0.25778425  -1.41180727  -1.57267331
C    0.24426402  -2.14047393  -3.30526476
H    0.67104810  -1.72801592  -4.22353430
H   -0.72493034  -2.59963864  -3.55547942
H    0.91904098  -2.93042896  -2.93999166
O   -0.71709866  -1.77051300   0.19720626
H   -0.05829407  -1.32698398   0.75189698
C   -1.97341704  -1.16266005   0.45159319
H   -2.70377515  -1.67415264  -0.18120818
H   -1.98803858  -0.09226112   0.19311751
H   -2.29407044  -1.27149483   1.49950240
O    1.31946828   1.16054145  -1.12143196
H    1.00024053   0.48173657  -1.73440901
C    0.31846155   2.16146522  -1.02831428
H    0.69427786   2.91799233  -0.33411399
H   -0.63306783   1.77553272  -0.63028755
H    0.11765923   2.65310372  -1.99306676
