30
Energy:   -139.67229220
O   -1.26248215   1.89490263   0.84862867
H   -1.11588070   2.03465944  -0.09868296
C   -0.80991688   3.05407555   1.52983098
H   -0.98240880   2.87972894   2.59535198
H   -1.36214118   3.96126420   1.23856750
H    0.26567423   3.24020553   1.38410276
O    0.29680837  -0.75795520  -1.53871946
H    0.06076231  -0.90200939  -0.61030472
C    1.34194816  -1.66103688  -1.86223156
H    1.59553043  -1.48530125  -2.91118257
H    1.04134869  -2.71510450  -1.75565418
H    2.24865371  -1.49562899  -1.25948567
O   -0.51509873  -0.78484422   1.20238727
H   -0.79633304   0.14144556   1.23868841
C   -1.67546593  -1.59201730   1.32302461
H   -1.34058631  -2.63197236   1.28019579
H   -2.39299383  -1.43039768   0.50338436
H   -2.20058837  -1.44157711   2.27926281
O    1.68122180  -2.56849089   1.40574615
H    0.91314530  -1.97826258   1.41634336
C    2.74068781  -1.90832803   2.07972727
H    3.59770318  -2.58697406   2.05852772
H    2.50408687  -1.69000899   3.13288164
H    3.03719763  -0.96852629   1.58816653
O   -0.60519857   1.88386507  -1.88662201
H   -0.21293488   0.99883056  -1.92220828
C   -1.35433856   2.07081052  -3.07673732
H   -1.78919140   3.07240278  -3.02015867
H   -2.17755571   1.34652504  -3.17921362
H   -0.73165344   2.01971989  -3.98361676
