30
Energy:   -130.70634426
O   -1.66569328   1.80634885   1.93195127
H   -1.86134816   2.18138846   2.80343721
C   -1.12158174   0.51169323   2.13280751
H   -0.90700479   0.10380958   1.14130720
H   -1.82289594  -0.17061049   2.63817604
H   -0.18102651   0.52984774   2.70534887
O    1.94408297  -0.76991091   1.46388315
H    1.40562469  -1.09726034   0.72813299
C    3.30702385  -0.93566104   1.10687777
H    3.89938845  -0.56200206   1.94650170
H    3.58477109  -0.35990486   0.21014000
H    3.57783426  -1.99006087   0.94050456
O    0.36893077  -1.55189168  -0.73214803
H   -0.26611865  -1.00051525  -1.21289697
C    0.38897582  -2.82696152  -1.35370164
H    1.10921373  -3.43517908  -0.79979375
H    0.71604652  -2.78278709  -2.40434464
H   -0.58764901  -3.33437776  -1.31484253
O   -1.44654243   0.21091443  -1.93881186
H   -1.14588741   1.08682069  -1.65452670
C   -2.82112146   0.09881510  -1.60639647
H   -3.14352211  -0.89343951  -1.93346496
H   -3.44516502   0.84698180  -2.11981010
H   -3.00450665   0.17758380  -0.52337168
O   -0.54653514   2.51055536  -0.58297382
H   -0.93105409   2.35758290   0.29290739
C    0.85855449   2.35083723  -0.47007119
H    1.27568960   2.52657044  -1.46536077
H    1.14712121   1.33638510  -0.15322192
H    1.31439490   3.07442775   0.22376136
