30
Energy:   -131.65428173
O   -0.48307184   0.42933855   1.52202110
H   -1.06459419   0.52137502   0.75274590
C   -0.94659114   1.32319577   2.52137233
H   -0.28049996   1.20660371   3.38056616
H   -1.97251812   1.09690053   2.85158687
H   -0.90904498   2.37606969   2.20071033
O    2.01894484  -0.83535129   1.18763902
H    1.20642931  -0.37773984   1.45000052
C    2.32064733  -1.78809722   2.19450772
H    3.23839899  -2.29431987   1.88313059
H    1.53309057  -2.54923258   2.30941928
H    2.50260193  -1.32526616   3.17708457
O    1.40392512  -1.91511654  -1.39342870
H    1.74414755  -1.51460413  -0.57963402
C    0.02231505  -2.17336608  -1.20108896
H   -0.34488204  -2.62426117  -2.12701828
H   -0.55941154  -1.25732729  -1.01335398
H   -0.16763854  -2.88034719  -0.37836623
O   -1.97763126   1.01463219  -0.82220218
H   -1.19671963   1.07900230  -1.39181326
C   -3.11258412   0.87551585  -1.66188213
H   -3.98313415   0.80437723  -1.00418374
H   -3.07572227  -0.03572899  -2.27917571
H   -3.25755036   1.74063580  -2.32771213
O    0.47847262   0.99255630  -2.15782833
H    1.05560313   0.39681183  -2.65826031
C    1.29933751   1.76128421  -1.29309022
H    0.63336394   2.42673445  -0.73708627
H    2.02614495   2.38344118  -1.83847906
H    1.84817131   1.14228370  -0.56618089
