30
Energy:   -125.92666946
O    1.73649599   0.67079258   0.73393934
H    1.02335848   0.58040849   0.08456359
C    1.65179523  -0.43183087   1.62252310
H    2.46205601  -0.31427120   2.34719018
H    1.78644836  -1.39923730   1.11382803
H    0.70015087  -0.45978242   2.17602925
O   -1.21581345  -2.32920753   1.43377227
H   -1.53359873  -1.42889542   1.26983970
C   -2.32636194  -3.10900657   1.84745004
H   -1.95069081  -4.11986073   2.02781153
H   -3.11334227  -3.16925592   1.07945961
H   -2.77967010  -2.74158012   2.78141302
O   -0.17713641   0.50444573  -1.40796290
H    0.30001180   1.06810905  -2.03488915
C   -0.06778840  -0.83458649  -1.86356085
H   -0.61063732  -1.45587360  -1.14606341
H    0.97477322  -1.18740100  -1.90050042
H   -0.52069125  -0.98437147  -2.85614375
O   -1.97836259   0.30255794   0.76099007
H   -1.46971131   0.44864959  -0.05040033
C   -1.81286043   1.44580890   1.58447052
H   -2.39221647   1.26449172   2.49384166
H   -2.19333459   2.36657211   1.11520315
H   -0.76382824   1.61200274   1.87548321
O    1.41032886   2.18663667  -3.02760469
H    1.34959141   3.05659007  -3.44940477
C    2.63129915   2.14214996  -2.30664265
H    2.68358684   1.15572876  -1.83789495
H    2.68307964   2.90150774  -1.51073319
H    3.51306845   2.25870861  -2.95600720
