30
Energy:   -125.16136236
O   -1.00481363  -0.77653112   2.51205214
H   -1.35313852  -0.26014653   1.77013570
C    0.39180604  -0.92695423   2.31365817
H    0.76799162  -1.51078297   3.15811871
H    0.92552270   0.03623421   2.29980577
H    0.63353241  -1.47151060   1.38748106
O   -2.00265506   0.53994573   0.15020704
H   -2.03621965  -0.25726632  -0.39911040
C   -3.32887098   0.84012320   0.55465554
H   -3.27273307   1.74053269   1.17239051
H   -3.78061829   0.03857096   1.15981313
H   -3.99552103   1.05087527  -0.29619027
O    0.60603104   1.54067279  -0.24235979
H   -0.31663161   1.32770526  -0.03800291
C    0.60414305   2.57254524  -1.21589431
H    1.65099821   2.80012384  -1.43449775
H    0.12202415   3.49520371  -0.85667287
H    0.11719650   2.26935726  -2.15596740
O   -1.83570808  -1.87581259  -1.26522533
H   -2.05953948  -2.80220883  -1.09169496
C   -0.49062217  -1.83482048  -1.71422122
H   -0.25498209  -0.78431311  -1.90499128
H   -0.33752433  -2.39445519  -2.65024867
H    0.22017878  -2.21314358  -0.96294831
O    2.44464036  -0.56313740  -0.56355407
H    1.85631406   0.20033932  -0.46660701
C    3.67301641  -0.24313325   0.06986791
H    4.32379208  -1.11371126  -0.04874975
H    3.55750701  -0.04755354   1.14745016
H    4.17488357   0.62325153  -0.38869953
