30
Energy:   -145.87390516
O   -0.40800023   1.57751717   0.85880197
H    0.33906240   1.03837532   1.15821267
C   -1.08468519   2.05328931   2.01130885
H   -1.92307031   2.65850824   1.65591377
H   -0.44836565   2.69035212   2.64536385
H   -1.49030875   1.23946296   2.63254433
O    1.55722697  -0.28395609   1.60955967
H    1.19407917  -1.09996070   1.23448177
C    2.88576631  -0.55575656   2.02626280
H    3.27969649   0.37376196   2.44614319
H    3.53937077  -0.85793101   1.19303465
H    2.93645596  -1.33125757   2.80652305
O    0.27290113  -1.16311579  -2.27162362
H   -0.48017758  -0.56623644  -2.14902359
C    1.45313870  -0.37618055  -2.25413126
H    2.29149364  -1.06409870  -2.39346829
H    1.59896043   0.15046070  -1.29801289
H    1.48159428   0.36581607  -3.06740159
O    0.36339326  -2.42947417   0.25738092
H    0.38302231  -2.18549750  -0.67990951
C   -0.99299278  -2.43267159   0.67300147
H   -0.99679625  -2.70943775   1.73076856
H   -1.60374077  -3.16762052   0.12563113
H   -1.46950397  -1.44449512   0.57697185
O   -1.70555585   0.67867119  -1.45319205
H   -1.33124311   1.05447771  -0.64258566
C   -2.28586817   1.74143607  -2.19231464
H   -2.70265289   1.30058610  -3.10194479
H   -1.54955774   2.50463197  -2.48922591
H   -3.10364259   2.24034317  -1.64907067
