30
Energy:   -126.35385973
O    1.70491826   1.16131360  -0.04710835
H    0.84742188   1.60820336   0.01131058
C    2.70398838   2.16115886  -0.16836069
H    3.66327953   1.64051631  -0.23299046
H    2.73919247   2.83489310   0.70205311
H    2.58559662   2.77267678  -1.07654931
O   -0.91532582   2.05438837   0.20371054
H   -1.16304444   1.29047164   0.74545770
C   -2.10707885   2.74304395  -0.13981820
H   -1.80979797   3.60038831  -0.74979354
H   -2.64817844   3.12215069   0.74124176
H   -2.79911906   2.12534478  -0.73337142
O    2.02635948  -1.58981724   0.08954015
H    2.07393331  -0.63372310  -0.05893212
C    2.29347416  -2.23128319  -1.14727226
H    2.23586134  -3.30730961  -0.96198026
H    3.29900888  -2.00503757  -1.53520288
H    1.55599508  -1.97887252  -1.92521236
O   -0.46766875  -0.60317137   1.49370304
H    0.42952220  -0.67185815   1.13488024
C   -0.65081103  -1.67636157   2.40323890
H   -1.66624746  -1.58381985   2.79796677
H    0.05006735  -1.63888368   3.25185085
H   -0.56045954  -2.66240526   1.92123084
O   -2.74825881  -0.75864631  -0.20379869
H   -2.00477896  -0.75205723   0.41718244
C   -2.25085767  -1.17215688  -1.46638924
H   -3.10116301  -1.17400275  -2.15374841
H   -1.82738227  -2.18850645  -1.44449234
H   -1.48844687  -0.48663700  -1.86834642
