30
Energy:   -126.01808682
O   -2.68586396  -1.19261347   1.05253563
H   -1.92005754  -1.54161575   1.53228683
C   -3.57017435  -0.62675092   2.00664699
H   -4.42699887  -0.23848607   1.44934335
H   -3.11750818   0.20907588   2.56276230
H   -3.94206966  -1.36637462   2.73288936
O    2.21066399  -0.67049992  -1.65729306
H    1.90786465   0.15985229  -1.26074414
C    3.61803389  -0.73826985  -1.49221439
H    3.94242098  -1.67944354  -1.94437620
H    3.92219237  -0.74533078  -0.43381225
H    4.14583787   0.08416402  -1.99995726
O   -0.28105413  -1.90947360   2.38021063
H    0.34663559  -2.61467721   2.59727459
C    0.46930668  -0.74889684   2.05997008
H   -0.25307016   0.03540791   1.81805493
H    1.12263492  -0.89288083   1.18520832
H    1.08705217  -0.39649086   2.90078985
O    1.00108406   1.68511661  -0.45396391
H    0.10667121   1.33906157  -0.59069297
C    1.03258065   3.00931573  -0.96193874
H    2.04692978   3.38391200  -0.79989338
H    0.33310284   3.68147808  -0.44068458
H    0.81988356   3.05582640  -2.04146365
O   -1.51785957   0.50327379  -0.88989600
H   -2.04043743  -0.05131707  -0.29176171
C   -1.17043733  -0.28665170  -2.01588413
H   -0.58226400   0.35332772  -2.67918171
H   -2.05073646  -0.64041812  -2.57508008
H   -0.55436356  -1.15962087  -1.74913469
