30
Energy:   -128.97453627
O    1.70486709   1.30590428   0.71226804
H    1.89855800   0.48501211   0.23577759
C    0.75901544   2.03508267  -0.05336719
H    0.55213642   2.95651819   0.49767078
H   -0.19135848   1.49391551  -0.18261448
H    1.13996340   2.31100919  -1.04911843
O   -0.66282160  -0.78635959  -1.95410461
H   -1.07919381  -0.77693613  -1.07947975
C   -1.63044708  -1.24102081  -2.88658405
H   -1.14486763  -1.24552223  -3.86621537
H   -2.50914943  -0.57970009  -2.94415499
H   -1.97867967  -2.26380922  -2.67347550
O   -1.62867389  -0.79170020   0.68598599
H   -1.82250336  -0.11051419   1.34692398
C   -0.66698419  -1.67231282   1.24474185
H   -0.46016361  -2.43317954   0.48725107
H   -1.03246301  -2.18218630   2.14985599
H    0.28071119  -1.16738301   1.48907091
O   -2.12140521   1.21280140   2.63877110
H   -2.80377141   1.78872395   3.01442102
C   -0.87303842   1.61545378   3.17912765
H   -0.11583966   0.95654468   2.74556792
H   -0.83009608   1.51050660   4.27453596
H   -0.61190756   2.65319600   2.91897562
O    1.96647202  -0.99431522  -0.96364756
H    1.10844819  -0.99826362  -1.41331720
C    2.96863906  -0.80788404  -1.95027740
H    3.92848648  -0.80594254  -1.42666079
H    2.86819723   0.15095159  -2.48255835
H    2.98786956  -1.61859043  -2.69536979
