30
Energy:   -129.52719721
O   -2.59546212   1.53411654  -0.52641355
H   -2.66952211   0.66118858  -0.93985661
C   -1.22740633   1.90857500  -0.55357966
H   -1.16200579   2.89387850  -0.08412788
H   -0.82931958   1.99096792  -1.57706179
H   -0.58577996   1.21665437   0.01416921
O   -1.17466128  -1.52479826  -1.07130380
H   -0.37654313  -1.07522128  -1.38644065
C   -0.91162792  -2.91883805  -1.07077919
H   -1.82073355  -3.40993679  -0.71324013
H   -0.08626953  -3.19559556  -0.39626741
H   -0.68522758  -3.30924138  -2.07532161
O   -0.50476891  -1.21815079   1.73134447
H   -0.89793992  -1.37558480   0.86010721
C   -1.45447638  -0.50828255   2.51023892
H   -0.99546437  -0.33932678   3.48811781
H   -2.38665604  -1.07415911   2.66386877
H   -1.71026768   0.47229777   2.07918165
O    1.20934755  -0.10063545  -1.61861666
H    1.58652316   0.11023509  -0.75161294
C    2.10292327   0.38673267  -2.60681123
H    1.66282347   0.14084884  -3.57703724
H    3.09593464  -0.08631311  -2.55265005
H    2.23526354   1.47896480  -2.55893245
O    1.78442975   0.37453174   1.09181671
H    1.10308918  -0.21338843   1.45035287
C    1.80473209   1.54705915   1.89012809
H    2.57748726   2.19813441   1.47247315
H    2.06264684   1.34168896   2.94088040
H    0.84893147   2.09359802   1.86737357
