30
Energy:   -145.09871038
O    1.24042609  -2.51723392   0.11040220
H    0.34211025  -2.26029655  -0.14540068
C    1.19844696  -3.87294777   0.52610820
H    2.21822469  -4.14600433   0.81067578
H    0.87399235  -4.55391072  -0.27626079
H    0.54662183  -4.02984848   1.39976917
O   -1.93172953   1.09616813   0.44215929
H   -1.17735362   1.55821823   0.04738092
C   -2.81256380   2.07800648   0.96432614
H   -3.65646688   1.54040856   1.40512231
H   -3.20568562   2.75272245   0.18780124
H   -2.34781823   2.68973277   1.75336343
O    0.45325879   2.09788085  -0.65305693
H    1.04553475   1.48113915  -0.19779643
C    1.22647501   2.81737458  -1.60015736
H    0.54396654   3.50731807  -2.10378954
H    1.67778787   2.16514036  -2.36414987
H    2.02776767   3.41053459  -1.13232338
O    1.92764735   0.15689580   0.74042670
H    1.87917208  -0.78385472   0.51445790
C    1.35042446   0.32109543   2.02587837
H    1.41328213   1.38621133   2.26475540
H    1.88878763  -0.23655987   2.80815901
H    0.28977624   0.02637177   2.05654830
O   -1.27830257  -1.47417559  -0.56390394
H   -1.63957823  -0.68093508  -0.14120706
C   -1.07261378  -1.17532298  -1.93536776
H   -0.66552010  -2.07938225  -2.39627639
H   -0.34985589  -0.35872773  -2.08889482
H   -2.00621444  -0.91601855  -2.45874941
