30
Energy:   -128.43710783
O   -0.34344421   1.33789416   1.46495858
H    0.21131467   0.54383228   1.45348720
C    0.49699941   2.45372787   1.21776751
H   -0.14385844   3.33945812   1.23414815
H    0.98847639   2.40612072   0.23340921
H    1.27369542   2.58003400   1.98820077
O    0.58052878  -1.41702098   1.32410699
H   -0.38161555  -1.52841078   1.30696418
C    1.05728242  -1.97837746   2.53659149
H    2.14241579  -1.84435459   2.53953335
H    0.84619900  -3.05613874   2.61814976
H    0.64883466  -1.47591568   3.42736639
O    1.62588731  -0.16784740  -0.97433192
H    1.38779379  -0.68438999  -0.19016452
C    2.33422114  -1.02480484  -1.85547941
H    2.59471202  -0.42708139  -2.73317890
H    1.72986823  -1.88135819  -2.19289793
H    3.26744332  -1.40983792  -1.41545300
O   -2.18519615  -0.87746434   1.23258301
H   -1.93708536   0.05393324   1.32934482
C   -2.68748613  -1.05473734  -0.08226027
H   -2.96214763  -2.10906366  -0.17414219
H   -1.93893956  -0.82814823  -0.85757487
H   -3.58610914  -0.44943298  -0.27939130
O   -0.55413824   0.61507589  -2.63089072
H    0.22678266   0.40417742  -2.09787323
C   -1.05563435   1.86461116  -2.18401598
H   -1.93481939   2.08687879  -2.79484818
H   -0.33243789   2.68466300  -2.31546638
H   -1.36954297   1.84397786  -1.12864260
