30
Energy:   -125.49152325
O    0.08281498   3.02844885   1.78600417
H    0.76556060   3.65055831   2.07799993
C    0.31441707   1.79424312   2.44602725
H   -0.46336190   1.10521730   2.10575014
H    0.24110516   1.87762768   3.54167761
H    1.29283380   1.35516506   2.19565056
O    0.99315970  -1.33474130   1.43837607
H    0.44056673  -1.12012226   0.67221490
C    1.24057171  -2.73140619   1.41291513
H    1.86416107  -2.95589190   2.28252866
H    1.78546344  -3.05036285   0.51061973
H    0.31829576  -3.32813626   1.49100235
O    1.20976494  -2.24859812  -2.13272729
H    0.52613485  -1.68614885  -1.73937757
C    2.42744451  -1.52090123  -2.11699578
H    3.18649506  -2.16894935  -2.56349450
H    2.75548500  -1.26285239  -1.09788952
H    2.37708777  -0.59479986  -2.71077838
O   -0.67880316  -0.61676508  -0.76366179
H   -0.94310281   0.31496618  -0.74254727
C   -1.86183579  -1.39931825  -0.78770599
H   -1.54586122  -2.44578228  -0.81133464
H   -2.47952786  -1.20900921  -1.67934286
H   -2.48754824  -1.25175287   0.10643366
O   -1.37841262   2.07238550  -0.43958519
H   -0.91271924   2.45096537   0.32082932
C   -2.11053927   3.11731721  -1.05978036
H   -2.62893519   2.67356345  -1.91408328
H   -1.46325778   3.92526440  -1.43531378
H   -2.86745706   3.55981582  -0.39341127
