30
Energy:   -125.10605025
O   -0.84699911   3.59502454   1.24692680
H   -1.33060475   4.43271264   1.19375243
C   -1.80299412   2.55181485   1.34851838
H   -1.24129169   1.61559863   1.40746550
H   -2.46717272   2.49681492   0.47180912
H   -2.42675355   2.63317960   2.25244386
O    0.96052872  -0.59513990   0.61944194
H    1.23370877   0.31830381   0.44792947
C    1.00229681  -0.80066038   2.02249238
H    0.69178505  -1.83423209   2.19798355
H    0.31248884  -0.13935137   2.56986124
H    2.01268166  -0.67197415   2.44122816
O    0.77321953  -3.21781723  -0.45476918
H    0.87785415  -2.33927908  -0.06024975
C    1.74330133  -3.34674837  -1.48182898
H    1.61137794  -4.34175990  -1.91545724
H    2.77506508  -3.27311023  -1.10391587
H    1.61358418  -2.60443882  -2.28490265
O   -1.65872859  -0.30843296  -0.50467214
H   -0.78412737  -0.46627679  -0.11920968
C   -2.13282859  -1.54366698  -1.01649231
H   -3.11867391  -1.34776373  -1.44685974
H   -2.24773701  -2.31154389  -0.23550676
H   -1.48802113  -1.95019882  -1.81130834
O    1.30045258   2.13411015   0.08549393
H    0.64374857   2.69872772   0.51951019
C    1.03720490   2.16080058  -1.30824997
H    1.78586858   1.51983654  -1.78169795
H    1.13002240   3.16994162  -1.73929129
H    0.04074346   1.76552908  -1.56044511
