30
Energy:   -128.36807306
O   -2.44993865  -0.49800901   0.13525043
H   -1.72759148  -0.46555600  -0.50940812
C   -3.36247330  -1.49717360  -0.29075944
H   -4.16960580  -1.52039037   0.44645376
H   -2.90763929  -2.49932700  -0.33065812
H   -3.80516120  -1.27706749  -1.27481130
O    1.29502005   1.25905058   1.91422459
H    1.28176310   0.33948976   2.21861814
C   -0.02560245   1.76639204   2.01955559
H    0.00741878   2.80279479   1.67276438
H   -0.40047365   1.76467478   3.05504870
H   -0.74326512   1.21821501   1.38928615
O    1.35431836  -1.53620018   2.39125984
H    2.07155689  -2.13831100   2.14335920
C    0.17254360  -1.98690952   1.74876215
H   -0.62512706  -1.29763359   2.03877146
H   -0.12166623  -3.00079438   2.06221933
H    0.25363782  -1.97253233   0.65058441
O    1.91510295   1.10375791  -0.81443360
H    1.75272255   1.24495802   0.13008660
C    3.10184680   1.80186276  -1.15622657
H    3.26992197   1.63215605  -2.22320153
H    3.98400458   1.43431438  -0.60897601
H    3.01869906   2.88766104  -0.99219641
O   -0.28883975  -0.40897167  -1.67517171
H    0.52422220   0.06180198  -1.43910878
C   -0.73649436   0.10279678  -2.92025491
H   -1.65287886  -0.43829868  -3.17113411
H   -0.01081731  -0.05977255  -3.73249955
H   -0.97520421   1.17702151  -2.87740455
