42
Energy:   -155.29300336
C   -1.51638994   2.26882128   0.30458969
H   -0.50766480   2.02980231   0.56962501
H   -2.11992449   2.29760155   1.18766207
H   -1.54197791   3.22437343  -0.17620593
C   -2.06273490   1.19612512  -0.65584258
N   -2.46951355   0.39745407  -1.37092805
C   -0.12582189  -2.38248551  -1.58016068
H    0.60503814  -2.55489222  -2.34240718
H   -1.03180113  -2.03067005  -2.02773928
H   -0.31776634  -3.29588220  -1.05693712
C    0.40247634  -1.32608965  -0.59196597
N    0.79581838  -0.53955492   0.14378991
C   -3.20753254  -2.10476679   1.01535094
H   -2.95205314  -1.91525476  -0.00627309
H   -4.26503661  -2.00360586   1.14322072
H   -2.90977989  -3.09808230   1.27910605
C   -2.48175648  -1.09348498   1.92208034
N   -1.94138321  -0.34053971   2.59718160
C    3.22549506   1.31243539  -1.60719486
H    3.14786755   0.61305718  -0.80112769
H    4.11242696   1.89869480  -1.48656813
H    3.27160252   0.78277678  -2.53576093
C    1.99433927   2.23755601  -1.60450029
N    1.07768783   2.92635036  -1.60249407
C   -1.04073392   1.59753257  -4.20148432
H   -1.98655808   1.11088082  -4.08535116
H   -0.97884903   2.02818030  -5.17903836
H   -0.94332438   2.36805585  -3.46547865
C    0.09128293   0.56915716  -4.02097987
N    0.93412094  -0.19651507  -3.88658610
C    1.16647639   1.52984601   2.98448955
H    0.82138859   2.54242854   3.00665319
H    1.23078936   1.15299745   3.98386340
H    0.48106435   0.93169593   2.42117267
C    2.55706568   1.47575323   2.32499324
N    3.59242262   1.43547870   1.83396826
C    1.08649584  -2.17035311   3.22732989
H    1.62877412  -2.71242184   3.97365149
H    0.40944880  -1.49085703   3.70145168
H    1.77234262  -1.62200317   2.61591707
C    0.29335403  -3.15736151   2.35077955
N   -0.29717610  -3.89223413   1.69814799
