42
Energy:   -154.75718439
C    2.59920925  -0.99656176  -2.08412923
H    2.65272353  -0.55602677  -3.05776434
H    2.22045747  -1.99406697  -2.16431372
H    3.57648257  -1.02001710  -1.64905935
C    1.66076344  -0.16118138  -1.19359059
N    0.96204788   0.46079729  -0.53054410
C    2.30235729   1.81183582   2.30125671
H    2.90885667   2.23485778   3.07463314
H    2.93027423   1.35312677   1.56627004
H    1.64966563   1.07584503   2.72222017
C    1.46510715   2.92247710   1.64013028
N    0.84173637   3.74940002   1.14789160
C    0.43871857   3.52795916  -2.24731474
H    0.45294873   4.43006861  -2.82255054
H    1.33488736   3.46111848  -1.66652828
H   -0.40941728   3.53424934  -1.59499189
C    0.34910608   2.31674120  -3.19416249
N    0.28238550   1.41493438  -3.89913368
C   -1.79360374  -0.94256534  -2.49478526
H   -2.84913030  -1.11779257  -2.50248449
H   -1.42624894  -0.93332873  -3.49970527
H   -1.59209566   0.00123303  -2.03268330
C   -1.09317059  -2.06202905  -1.70245048
N   -0.57166627  -2.89552067  -1.11252122
C   -2.68890401  -2.91667604   1.85263555
H   -2.17780433  -2.41902150   2.65014245
H   -1.99030857  -3.50102944   1.29103550
H   -3.44473503  -3.55657033   2.25779461
C   -3.34213019  -1.87092321   0.92997820
N   -3.82848677  -1.09231270   0.24301786
C    1.07544647  -2.37719813   1.87712838
H    0.84922740  -2.26819863   2.91724579
H    1.02692131  -3.41167934   1.60806884
H    0.36568920  -1.82434273   1.29790942
C    2.49239520  -1.84089386   1.60102328
N    3.54737794  -1.44159096   1.39545048
C   -1.98829051   1.80763009   0.81140480
H   -1.44353627   1.67515392  -0.09996399
H   -1.89053625   2.82079610   1.14131059
H   -3.02151767   1.58484905   0.64494358
C   -1.42594670   0.86073152   1.88785850
N   -1.00725618   0.15572250   2.68932720
