42
Energy:   -154.25867005
C   -0.07155025   2.51842247  -4.05874151
H   -0.02005678   2.91097734  -5.05279849
H    0.20853346   3.27884732  -3.36002393
H   -1.07114348   2.19639584  -3.85377490
C    0.88989522   1.32246907  -3.92867203
N    1.60573507   0.43202740  -3.83182939
C    1.91015696  -0.10530378  -0.53656420
H    2.54716920  -0.86983682  -0.92976241
H    2.27675515   0.85393048  -0.83718769
H    0.91705894  -0.24098205  -0.91105962
C    1.89502695  -0.19025288   1.00101661
N    1.88376197  -0.25350135   2.14581541
C    1.33969418   3.14823820   2.47904215
H    2.00090493   2.46847272   2.97464222
H    1.51056633   4.14028858   2.84172362
H    1.52112674   3.11764876   1.42498067
C   -0.11901304   2.74280658   2.76081943
N   -1.20508688   2.44094430   2.97061542
C    1.19155951  -3.85287361   2.08217934
H    1.68297294  -4.69984860   2.51351030
H    0.13191579  -3.99475567   2.12604000
H    1.45621030  -2.97107109   2.62741633
C    1.62848785  -3.69879484   0.61352235
N    1.95380086  -3.58407619  -0.47995954
C   -2.68230073   1.54623095  -0.17246991
H   -3.38003053   2.03281546  -0.82155296
H   -2.94274547   1.74677222   0.84578881
H   -2.70958338   0.49081126  -0.34637804
C   -1.26397648   2.07629979  -0.45350970
N   -0.20796961   2.47096013  -0.66275660
C   -1.44325731  -0.84027315   3.34392874
H   -2.23588923  -0.12975858   3.45257432
H   -0.52052859  -0.39526266   3.65285667
H   -1.64682854  -1.69736363   3.95126206
C   -1.33750887  -1.26979664   1.86882643
N   -1.25877435  -1.58959640   0.77054570
C   -0.41854385  -2.33762651  -2.63851982
H   -0.51777431  -2.71743704  -1.64313172
H    0.59319669  -2.03129563  -2.80417476
H   -0.67893190  -3.10267691  -3.33980082
C   -1.35711376  -1.13076794  -2.82339522
N   -2.05592171  -0.23220687  -2.96104335
