42
Energy:   -154.23299337
C   -0.88005535   0.38698450   2.41302920
H   -1.91293687   0.65173665   2.32379783
H   -0.62538894   0.28770610   3.44752807
H   -0.70545137  -0.54218304   1.91197010
C   -0.01130497   1.48613462   1.77370002
N    0.63551917   2.30450184   1.29769038
C   -1.92215016   3.67588714  -0.49269934
H   -2.74018909   4.34687935  -0.65232997
H   -1.23003054   4.11460798   0.19533667
H   -2.28953165   2.75490582  -0.09055093
C   -1.21216450   3.40425402  -1.83200357
N   -0.68354791   3.20201082  -2.82917644
C    3.76629728   0.72629836   2.12881702
H    4.68196231   1.03072895   2.59118025
H    3.28866211   1.57691787   1.68926021
H    3.97390787   0.00175361   1.36932256
C    2.83705602   0.10669138   3.18909900
N    2.14519366  -0.35463418   3.97852712
C    1.43197874  -3.50162626   2.95788620
H    2.02882429  -2.95906724   2.25481773
H    1.68384323  -4.54058047   2.91274744
H    1.61865292  -3.13191207   3.94447795
C   -0.05820319  -3.31929997   2.61479012
N   -1.16771138  -3.18354976   2.35933948
C    1.40900010   0.64359178  -1.71738041
H    0.37230391   0.82184875  -1.91330296
H    1.89088639   0.31802638  -2.61554068
H    1.86761468   1.54727962  -1.37398553
C    1.54744968  -0.44503109  -0.63694903
N    1.65053169  -1.25556030   0.16748124
C   -1.64353292  -2.52225037  -0.88117512
H   -2.35162048  -3.05024899  -0.27724661
H   -0.65531550  -2.70403929  -0.51337326
H   -1.71527792  -2.86118618  -1.89353586
C   -1.94345188  -1.01287003  -0.82269766
N   -2.16675517   0.11093224  -0.77915853
C   -2.16045450   0.69895230  -4.47693131
H   -2.63964984   1.01989160  -3.57567110
H   -2.89720630   0.33655322  -5.16305287
H   -1.63860661   1.52321662  -4.91643354
C   -1.16146867  -0.42770307  -4.15401491
N   -0.41767832  -1.26654920  -3.91358897
