42
Energy:   -153.78338766
C    0.38690402   1.62460544  -2.32752388
H    1.30574458   2.13641055  -2.52421587
H   -0.14448602   2.13190837  -1.54959879
H   -0.20982976   1.60898307  -3.21553504
C    0.68811602   0.18033367  -1.88599202
N    0.91238205  -0.89499231  -1.55725148
C   -2.45299091  -1.57122991  -0.56779818
H   -1.49076766  -1.17915841  -0.31224673
H   -2.64465046  -1.39750135  -1.60605831
H   -2.47286898  -2.62307901  -0.37256133
C   -3.53341897  -0.87168139   0.27772359
N   -4.33784677  -0.35083572   0.90725299
C   -3.89265426   2.88986479  -0.59252660
H   -4.54428109   3.62089572  -1.02366049
H   -3.07460298   3.38199416  -0.10930835
H   -4.43350074   2.30888684   0.12500305
C   -3.35376550   1.96560062  -1.70019741
N   -2.95253831   1.27744393  -2.52490869
C    4.35852745  -0.89626087  -2.13493945
H    4.37556710   0.17359795  -2.13839454
H    3.50321201  -1.24110507  -2.67754157
H    5.24847535  -1.26864430  -2.59778111
C    4.28415811  -1.40378708  -0.68287666
N    4.22878675  -1.78166342   0.39825009
C    2.21836948   0.78550968   1.66242230
H    2.95342945   0.14027231   2.09630681
H    1.38091035   0.20427844   1.33725843
H    1.89564439   1.49938681   2.39120693
C    2.83023171   1.52325952   0.45703863
N    3.28579094   2.07254780  -0.44042430
C    1.40127425  -3.57447470   0.73804759
H    0.93348036  -4.53252288   0.64742343
H    2.33331405  -3.67992572   1.25290774
H    1.57611570  -3.16929541  -0.23671356
C    0.48146454  -2.62698446   1.53039369
N   -0.20337560  -1.92153491   2.12033138
C   -1.99825699   0.70083491   3.24927650
H   -1.24083287   0.71141067   4.00498613
H   -2.30405954  -0.30781991   3.06488741
H   -2.83943177   1.27388178   3.57933915
C   -1.43759056   1.31256462   1.95195622
N   -1.02014892   1.76802520   0.98604230
