42
Energy:   -153.79714788
C   -1.75893988   1.38504971  -3.93845416
H   -1.04909332   0.64731844  -3.62737440
H   -1.37348510   1.91713461  -4.78297140
H   -2.67688292   0.90562557  -4.20758641
C   -2.01420371   2.37104086  -2.78335165
N   -2.20425923   3.10515609  -1.92332532
C   -2.77766199   0.16637099   0.18637658
H   -3.34429153  -0.31151125   0.95803695
H   -3.11460723   1.17514123   0.06911790
H   -1.74119176   0.16514477   0.45213407
C   -2.96893246  -0.59594740  -1.13796713
N   -3.11134202  -1.16352809  -2.12400123
C    3.04190694   0.82722296  -0.84646767
H    3.59537618   0.13076209  -1.44103829
H    3.25189677   0.65807953   0.18900028
H    3.32525979   1.82492802  -1.10951686
C    1.53527765   0.63709630  -1.10243648
N    0.41352367   0.49553835  -1.29301690
C    2.87844463  -2.65592525   2.15906214
H    1.84893309  -2.82547626   2.39625117
H    3.19922678  -1.73547531   2.60038947
H    3.47007534  -3.46069507   2.54275177
C    3.04697949  -2.57839132   0.63027685
N    3.17246136  -2.52066377  -0.50797330
C   -0.61524699  -0.44812221   3.49976064
H   -0.67387042  -0.08939746   4.50613037
H   -0.54467844  -1.51577821   3.50522331
H   -1.49243746  -0.15139506   2.96367393
C    0.63006175   0.14514460   2.81504126
N    1.55725072   0.58685871   2.30523656
C   -0.14234554  -2.90291279  -1.76005675
H   -0.82778822  -3.64731972  -2.10780210
H    0.86000249  -3.22068491  -1.95809306
H   -0.33067680  -1.97984104  -2.26737222
C   -0.32739647  -2.70270187  -0.24438141
N   -0.46517530  -2.55363575   0.88410778
C   -0.01626244   3.50342296   0.74948635
H   -0.13085458   3.02484252  -0.20063448
H    0.96065589   3.30010891   1.13574154
H   -0.14146289   4.55979542   0.63415569
C   -1.07717435   2.96445364   1.72702305
N   -1.86707149   2.56316649   2.45484355
