42
Energy:   -153.86553556
C   -1.87967789   1.34554897  -3.89417141
H   -1.13558987   0.63421813  -3.60220969
H   -1.53344294   1.89528193  -4.74435617
H   -2.78441224   0.83251458  -4.14546916
C   -2.14678723   2.31651684  -2.72906456
N   -2.34566227   3.03944656  -1.86158954
C   -2.77243808   0.08104435   0.24585742
H   -3.29873488  -0.42351643   1.02901148
H   -3.15650038   1.07414459   0.14027735
H   -1.73088674   0.12519007   0.48694049
C   -2.96125719  -0.68562547  -1.07632439
N   -3.10184160  -1.25644600  -2.06074884
C    3.00181533   0.92728121  -0.89017276
H    3.56660616   0.25575444  -1.50251523
H    3.23369909   0.75166521   0.13953012
H    3.25017113   1.93647984  -1.14460665
C    1.49775006   0.69404148  -1.12466560
N    0.37790509   0.52038389  -1.29925618
C    2.99916537  -2.58297541   2.09073646
H    1.97634546  -2.77657896   2.33823855
H    3.30588501  -1.66054465   2.53788703
H    3.61206535  -3.37900040   2.45897133
C    3.14769689  -2.48626068   0.56097026
N    3.25828537  -2.41425216  -0.57801022
C   -0.55778889  -0.46937350   3.50959736
H   -1.04726129   0.28122059   4.09434127
H   -0.23895574  -1.26696190   4.14763911
H   -1.23756163  -0.84954092   2.77592111
C    0.66617087   0.14542113   2.80564418
N    1.57746454   0.60316368   2.28151905
C   -0.06001431  -2.88715378  -1.80225146
H   -0.71138671  -3.66291662  -2.14693422
H    0.95396776  -3.14916663  -2.02154284
H   -0.30591240  -1.96977796  -2.29505448
C   -0.22799206  -2.71386767  -0.28127960
N   -0.35305913  -2.58484828   0.85115309
C   -0.12393535   3.49000966   0.77672441
H   -0.24476922   3.01227891  -0.17305066
H    0.86716333   3.31545007   1.14025083
H   -0.28432004   4.54247888   0.66955918
C   -1.14563386   2.91405020   1.77472383
N   -1.90633485   2.48522220   2.51777976
