42
Energy:   -155.02226293
C    1.58292068   0.52332963  -1.99955169
H    1.53736526   0.62327274  -3.06389950
H    2.51984743   0.89998961  -1.64572317
H    0.78413895   1.07909719  -1.55461432
C    1.44966065  -0.96251499  -1.61731157
N    1.35044250  -2.06879386  -1.33271642
C   -3.34169799   1.17554917  -1.49895757
H   -4.03697775   0.36380963  -1.44831000
H   -3.85484901   2.06679094  -1.79436105
H   -2.89502609   1.32306836  -0.53790534
C   -2.24533271   0.84880741  -2.52989064
N   -1.42903892   0.60553333  -3.29746717
C    0.92029738   3.49223632   0.22643638
H    0.99863483   2.49014619   0.59328620
H    1.12248220   4.17975822   1.02100169
H    1.62861347   3.63986754  -0.56184811
C   -0.50289319   3.73250125  -0.31059375
N   -1.56252326   3.91138942  -0.71043710
C   -1.19445998  -2.96324784  -3.40457426
H   -0.41166188  -3.58383828  -3.02117523
H   -0.77414376  -2.06171602  -3.79887585
H   -1.71431546  -3.48396607  -4.18142810
C   -2.17784370  -2.61814780  -2.27079191
N   -2.91001758  -2.36120513  -1.42663941
C   -1.07898292  -2.23863128   1.34789102
H   -0.68856145  -2.45043673   2.32134349
H   -0.58038925  -2.84795332   0.62330142
H   -2.12778095  -2.44986649   1.33052845
C   -0.84901458  -0.75279806   1.01470306
N   -0.67779269   0.35347230   0.76662947
C    2.94147746  -1.89062471   1.78837315
H    2.08427501  -2.33732622   1.32950291
H    2.89245552  -2.03073500   2.84802642
H    3.82974088  -2.35060471   1.40849740
C    2.96732789  -0.38402433   1.47043125
N    2.98657470   0.73770813   1.23370905
C    0.54657027   1.81546921   3.68840853
H   -0.31521378   2.02213463   3.08881046
H    1.42640639   2.13648365   3.17097523
H    0.46830780   2.33952012   4.61800238
C    0.63322837   0.30176042   3.95817894
N    0.69774926  -0.82526458   4.15903526
