42
Energy:   -154.04279339
C   -2.96959998   0.42706748  -0.49409483
H   -3.72309849   0.53622301  -1.24590946
H   -2.00580239   0.59245903  -0.92842066
H   -3.13701801   1.14113730   0.28499091
C   -3.03131672  -0.99580437   0.09176073
N   -3.07726764  -2.05519714   0.52795683
C   -2.79319612  -1.83767502   3.87149764
H   -3.24947616  -1.77701502   4.83743194
H   -3.24642862  -2.62916658   3.31201528
H   -2.92975625  -0.91130644   3.35372193
C   -1.28763078  -2.11910265   4.03172092
N   -0.16666895  -2.32863832   4.15101445
C    0.33770842   2.58455139  -0.69411477
H   -0.63152476   2.91773025  -1.00148925
H    0.72198545   3.24665911   0.05344367
H    0.26387857   1.59607213  -0.29117929
C    1.28586948   2.57475392  -1.90757866
N    1.99181849   2.56745925  -2.81105768
C    1.47301031   0.65105755   3.46967671
H    1.86026616  -0.34369502   3.39618922
H    1.30398880   0.89292372   4.49818611
H    2.17758237   1.33981731   3.05243901
C    0.14485657   0.74335215   2.69566810
N   -0.84401427   0.81206967   2.11938350
C   -0.20309493   0.46508515  -4.74457038
H    0.76659735   0.91252969  -4.67830995
H   -0.50730753   0.42323565  -5.76955936
H   -0.16688266  -0.52584941  -4.34253002
C   -1.21300862   1.30753801  -3.94335409
N   -1.96493526   1.93478245  -3.34681215
C    3.85290514  -0.10197219  -1.97940203
H    4.28463684   0.78787604  -2.38766427
H    3.01683026  -0.39947745  -2.57720510
H    4.58393010  -0.88330323  -1.97456509
C    3.38272675   0.17002985  -0.53837907
N    3.03265756   0.37254773   0.53452802
C    0.47931824  -2.28026777   0.68196335
H    1.33471828  -1.94217135   1.22866415
H    0.57801611  -3.32559437   0.47592905
H   -0.40389059  -2.11296885   1.26235315
C    0.37729078  -1.50316901  -0.64367155
N    0.30132670  -0.92458365  -1.63066700
