42
Energy:   -155.03965128
C   -0.81965178   2.89005612  -2.21301366
H   -1.55793593   3.32685028  -2.85258192
H   -0.69201401   1.85874651  -2.46798069
H    0.10966415   3.40573960  -2.33687463
C   -1.27829854   3.00351542  -0.74728171
N   -1.61978190   3.08799103   0.34402234
C   -3.68730490   0.05848094   0.06707878
H   -4.73705436   0.00397124  -0.13280853
H   -3.44730544   1.02772846   0.45160265
H   -3.42227155  -0.68676586   0.78767828
C   -2.90331872  -0.18545987  -1.23578673
N   -2.31960537  -0.36708489  -2.20582933
C    1.56032942  -0.71708328  -2.66517354
H    1.98836282  -1.15687916  -3.54168205
H    0.49392680  -0.71271984  -2.75272640
H    1.84525390  -1.28622411  -1.80505968
C    2.06902656   0.72875384  -2.51556656
N    2.44777469   1.80524530  -2.40417737
C    2.05211969  -2.26298038   2.32065374
H    2.38219858  -1.24609183   2.27722823
H    2.67674223  -2.81228428   2.99371465
H    1.04011975  -2.29500773   2.66667321
C    2.13458683  -2.88985842   0.91643755
N    2.19598737  -3.35659762  -0.12906522
C   -0.88706032   0.49771657   2.69238422
H   -0.10843274   0.60407344   3.41855739
H   -1.52044138  -0.32020038   2.96576930
H   -1.46394169   1.39804836   2.65353003
C   -0.26582771   0.22602592   1.30968604
N    0.19670820   0.02373988   0.28020441
C   -1.03396079  -3.38591699  -1.03238487
H   -0.40786071  -4.25361135  -1.03470361
H   -0.50887851  -2.56602315  -1.47618864
H   -1.92276864  -3.58592672  -1.59355847
C   -1.41158462  -3.02925485   0.41737109
N   -1.69274272  -2.76370368   1.49678031
C    2.37929635   2.96826840   0.75936614
H    1.55048169   2.65484420   0.15958975
H    3.27920059   2.90786304   0.18367295
H    2.22703555   3.97821821   1.07829735
C    2.49612242   2.05272913   1.99214329
N    2.58310475   1.37106853   2.91000192
