42
Energy:   -153.99195269
C   -1.60758380  -1.45636978  -3.91505232
H   -1.58569223  -1.52654239  -4.98252445
H   -2.57189727  -1.75204865  -3.55787920
H   -0.86062587  -2.10026156  -3.49989413
C   -1.32626133  -0.00309171  -3.49026942
N   -1.11680395   1.07893987  -3.17399924
C   -3.33179132   1.34271109  -0.13139794
H   -2.59601784   1.79379084  -0.76390457
H   -4.04656698   2.08093370   0.16696798
H   -3.82914012   0.55982322  -0.66490505
C   -2.64620076   0.75777702   1.11736853
N   -2.13574743   0.32226701   2.04713194
C   -1.35009985  -3.13015549   1.41691467
H   -1.20703760  -2.35395763   2.13937592
H   -0.39986559  -3.52895652   1.12897081
H   -1.94904807  -3.90783340   1.84279866
C   -2.06159312  -2.55404891   0.17857766
N   -2.59133220  -2.12511138  -0.74342053
C    0.77290250   1.63205733   3.26444649
H   -0.06283210   2.20692241   2.92389106
H    1.13272375   2.03774214   4.18686049
H    0.46986007   0.61702349   3.41534605
C    1.89401851   1.68168853   2.20982066
N    2.72874034   1.71864121   1.42460380
C    3.99239608  -1.69402444   1.08670713
H    4.22526212  -0.66237000   0.92434112
H    3.85288262  -2.18080659   0.14411590
H    4.79674300  -2.16244993   1.61444066
C    2.70037755  -1.80405086   1.91747924
N    1.73841103  -1.88597053   2.53602685
C    0.45387437  -0.16935190  -0.35990367
H    1.14551146   0.62626226  -0.54303320
H    0.37590215  -0.33872448   0.69372452
H   -0.50633362   0.09577956  -0.75055058
C    0.95263830  -1.45226502  -1.05053270
N    1.32399072  -2.40745215  -1.56473741
C    1.22710495   3.45566957  -1.58498716
H    0.87831314   2.87515800  -2.41338970
H    2.15398204   3.05352145  -1.23274459
H    1.37319599   4.46901764  -1.89592476
C    0.18483053   3.41150118  -0.45215302
N   -0.59119015   3.37861580   0.39129349
