42
Energy:   -156.69859176
C    2.40167119  -0.78199009   2.23078097
H    2.42496249  -1.34988304   1.32421862
H    1.64657203  -1.17542241   2.87880517
H    3.35410873  -0.84315933   2.71453725
C    2.08412879   0.68964030   1.90663463
N    1.84770405   1.78533601   1.66529295
C   -1.26934602   2.33648809   3.47759835
H   -1.15716583   2.89947752   4.38057049
H   -2.27299598   2.43302433   3.11945509
H   -0.58986425   2.70771193   2.73908871
C   -0.96424120   0.85297666   3.75635434
N   -0.73707680  -0.25156502   3.96390085
C    1.38901535  -2.38300494  -2.49300927
H    0.57933899  -3.07498313  -2.59543266
H    1.71233796  -2.36074643  -1.47327100
H    2.20146818  -2.68960329  -3.11816281
C    0.91967562  -0.97783433  -2.91350393
N    0.57023086   0.06837906  -3.22658133
C   -2.31487894  -2.22536429   1.68386169
H   -1.97517637  -2.56482750   2.64003483
H   -2.77429531  -3.03722395   1.15972471
H   -3.02732486  -1.43826947   1.81728451
C   -1.11718888  -1.70114722   0.87002203
N   -0.22545419  -1.31084378   0.26408142
C   -2.77316226  -0.68598721  -2.58176967
H   -3.71642646  -0.32147222  -2.23208173
H   -2.73142584  -0.60239379  -3.64768209
H   -1.98426497  -0.10808493  -2.14752421
C   -2.61105827  -2.16267824  -2.17592992
N   -2.49036448  -3.26214183  -1.87376379
C    3.08367691   2.16056991  -1.74846495
H    2.31409906   2.10274582  -2.48961708
H    3.93566442   2.66238750  -2.15736039
H    2.72231247   2.70434043  -0.90074538
C    3.48516397   0.73892561  -1.31333783
N    3.78408933  -0.31955320  -0.98936592
C   -0.50593222   2.06869076  -0.64741301
H   -0.15435710   2.96217694  -0.17520801
H   -0.68173622   2.25936673  -1.68550487
H    0.22976252   1.29840537  -0.54586125
C   -1.81776403   1.61694206   0.02088364
N   -2.79448245   1.28059461   0.51846086
