42
Energy:   -155.13903632
C    3.50946261   1.08583070  -0.19391482
H    2.91572234   1.81422343  -0.70559509
H    3.49263952   0.16524904  -0.73902534
H    4.51735667   1.43691356  -0.11782619
C    2.93760241   0.85714181   1.21756572
N    2.51182650   0.68687253   2.26847714
C   -0.95875082  -0.14717084   1.64853415
H   -0.28708665   0.06200186   2.45476873
H   -1.36508344  -1.12970639   1.76860409
H   -1.75288966   0.56993293   1.65071953
C   -0.19766230  -0.06619969   0.31220039
N    0.36900271  -0.00591299  -0.68276084
C    0.03051034   3.32836444   2.57322555
H   -0.89711999   2.79994889   2.50125917
H   -0.14157029   4.29463526   2.99938051
H    0.70634375   2.77945824   3.19519843
C    0.64057824   3.48819504   1.16828023
N    1.09480151   3.60719620   0.12223458
C    0.24622672  -3.01459869  -2.46009990
H    1.13957232  -2.43731552  -2.34357533
H   -0.41688609  -2.51350061  -3.13395538
H    0.49321797  -3.97848009  -2.85358061
C   -0.44062036  -3.17939318  -1.09163951
N   -0.95200923  -3.30209017  -0.07275854
C   -3.84544685  -1.04349639  -0.85482774
H   -3.51310190  -1.95357491  -0.40073073
H   -4.89173680  -1.11256429  -1.06791473
H   -3.67081607  -0.22669508  -0.18606859
C   -3.06923615  -0.80984038  -2.16421761
N   -2.49131201  -0.63587286  -3.13911788
C   -1.04444007   2.55938295  -2.45208575
H   -1.60983222   3.02867036  -3.22990400
H   -0.73618596   1.58619056  -2.77267126
H   -0.18143825   3.15209804  -2.23114285
C   -1.91643258   2.43156254  -1.18919581
N   -2.56567064   2.33639443  -0.24891684
C    1.81019046  -2.82090662   2.20150600
H    2.01275970  -1.98852367   2.84260234
H    2.16040232  -3.72032523   2.66334678
H    0.75596146  -2.89338787   2.03343826
C    2.53190189  -2.62010619   0.85599056
N    3.06924886  -2.47060115  -0.14580684
