42
Energy:   -155.62015223
C   -1.42935996   0.24325034  -3.52028203
H   -2.07877949   0.37215898  -2.67972446
H   -1.01496885  -0.74309455  -3.50287939
H   -1.98469235   0.38090299  -4.42447049
C   -0.29182918   1.27920253  -3.45374777
N    0.55511419   2.05051602  -3.40420998
C   -4.08461234  -0.53171316   0.83704953
H   -3.50120820  -0.96852663   1.62046116
H   -5.12453934  -0.67326534   1.04540958
H   -3.87244027   0.51524127   0.77566111
C   -3.73292925  -1.20613189  -0.50200923
N   -3.47108521  -1.70826730  -1.49899935
C    3.60549739   0.27567475  -2.80762326
H    3.99581188   0.12807459  -1.82234717
H    3.18399939   1.25641163  -2.88106505
H    4.39440595   0.17202918  -3.52301125
C    2.51493782  -0.77424904  -3.09035961
N    1.70296665  -1.55596503  -3.30086968
C    2.57053298  -1.14683124   3.10688216
H    1.56174068  -1.40669299   3.35123880
H    2.87479339  -0.30633837   3.69501176
H    3.21272593  -1.97752136   3.31289489
C    2.66025460  -0.78693259   1.61221732
N    2.72705642  -0.51897168   0.49937141
C   -1.73560857   0.99475936   3.61412734
H   -2.19965662   1.56555706   4.39114058
H   -1.80478882  -0.04726791   3.84713452
H   -2.23196076   1.18636693   2.68578465
C   -0.25377967   1.39720676   3.49657224
N    0.84950931   1.69684714   3.40904713
C   -0.15189418  -2.09917896  -0.59087404
H   -0.15189101  -1.13275608  -1.05014193
H   -0.85477707  -2.73191805  -1.09136977
H    0.82623043  -2.52729644  -0.66077941
C   -0.54804176  -1.96326479   0.89108225
N   -0.84299165  -1.86207052   1.99446606
C    1.16529181   2.41078784  -0.09474375
H    1.60183262   2.45511433   0.88114941
H    1.07948021   3.40044827  -0.49237134
H    1.78588305   1.82108155  -0.73662543
C   -0.23268605   1.77135472  -0.00318395
N   -1.27354411   1.29526770   0.06498648
