42
Energy:   -154.82867022
C    1.50065149  -3.97790777  -1.68145947
H    1.93788460  -4.67670875  -2.36366514
H    0.52044891  -3.71445834  -2.02012801
H    1.43512455  -4.42130519  -0.70986076
C    2.37643300  -2.71316389  -1.61053942
N    3.02849215  -1.77150458  -1.55773623
C   -0.22837727  -0.43353242   4.01196084
H   -0.00333671  -1.41890119   3.66081229
H   -0.51352464  -0.47852278   5.04228406
H    0.63617325   0.18827103   3.90798029
C   -1.38617695   0.15448342   3.18410983
N   -2.24821143   0.59228793   2.56773712
C   -2.02830844  -1.92257298   0.01450344
H   -2.15816821  -0.89382504   0.27853806
H   -2.88344743  -2.48263561   0.33067783
H   -1.91875266  -2.00740337  -1.04648687
C   -0.76832270  -2.47503814   0.70647035
N    0.16979395  -2.88637355   1.22167117
C   -0.69630818   3.73284209   1.49957820
H   -0.23236135   4.07941920   0.59983500
H   -1.20772169   4.54487429   1.97282127
H   -1.39666532   2.95881727   1.26445152
C    0.38000101   3.17932690   2.45182788
N    1.18136213   2.76720969   3.16082106
C    1.34917429   0.73866022  -3.38670318
H    2.31769404   0.28396091  -3.37583125
H    1.27031296   1.42944162  -2.57337604
H    1.20974262   1.25887193  -4.31127751
C    0.26940663  -0.34983945  -3.24223760
N   -0.53452946  -1.16027692  -3.13467641
C   -2.67707286   1.52333764  -1.71527078
H   -3.63814869   1.97947428  -1.60049794
H   -2.36281386   1.11306528  -0.77835191
H   -2.73766955   0.74241629  -2.44423511
C   -1.65892441   2.58127220  -2.17975780
N   -0.90086661   3.36895257  -2.52558950
C    2.53264839  -0.05377085   1.32279573
H    2.48276440  -1.10226686   1.53032377
H    2.60135494   0.48895457   2.24237587
H    3.39477116   0.15044723   0.72284708
C    1.26474341   0.38024011   0.56407876
N    0.32073052   0.70338100  -0.00082051
