42
Energy:   -153.73018180
C    1.93655545  -1.04617779   4.35010341
H    1.85935507  -2.05697501   4.00771582
H    1.98988654  -1.03466317   5.41871106
H    2.81953561  -0.59852667   3.94408173
C    0.70007584  -0.25223944   3.88925630
N   -0.22053943   0.33888375   3.54613468
C   -2.59619160  -1.77778337  -2.94818126
H   -1.63734959  -1.30519963  -2.90141799
H   -3.13633648  -1.40575586  -3.79360312
H   -2.46809081  -2.83574167  -3.04416828
C   -3.38317324  -1.47072255  -1.66055804
N   -3.96911685  -1.24210181  -0.70186403
C   -1.22412926  -2.42161153   1.39676058
H   -0.63324573  -1.54149532   1.54219889
H   -1.04925200  -3.10551512   2.20087060
H   -2.26031381  -2.15574389   1.37362930
C   -0.83492049  -3.08666287   0.06341019
N   -0.54513687  -3.58182382  -0.92932977
C   -2.35068773   1.57030736   0.87402310
H   -2.03947652   1.39788704   1.88314103
H   -3.33165377   1.16811320   0.72964657
H   -2.36444938   2.62245173   0.67985324
C   -1.36693323   0.88302007  -0.09110034
N   -0.63448328   0.37130344  -0.80967861
C    1.78746659   2.19128378   1.14396760
H    2.53086585   2.36781172   1.89303076
H    1.23478302   1.30898247   1.39091773
H    1.12191353   3.02783170   1.09786126
C    2.47087866   2.00306585  -0.22319075
N    2.97971002   1.86292905  -1.24110228
C    0.39243035   2.88238740  -3.19791985
H   -0.20099763   3.18951870  -4.03363139
H    0.32833778   1.82017619  -3.08612272
H    1.41187922   3.16287937  -3.36207634
C   -0.12847679   3.56544044  -1.91975934
N   -0.51631583   4.07400448  -0.96811074
C    2.22196147  -1.49994693  -1.61136267
H    1.59052742  -0.72652591  -1.99608484
H    1.85736667  -2.45226960  -1.93547879
H    3.21940454  -1.35838075  -1.97186987
C    2.21992607  -1.44621169  -0.07230179
N    2.21841061  -1.40620335   1.07359899
