42
Energy:   -153.65442987
C    1.37565030   2.79318135  -0.56465762
H    1.06305104   3.74240637  -0.18235701
H    2.35041712   2.88590235  -0.99608730
H    1.40471186   2.07974773   0.23225328
C    0.38079534   2.32036826  -1.64090637
N   -0.35991940   1.96833741  -2.44222249
C   -1.91650833  -1.08176387  -1.45861925
H   -1.64639365  -2.02475430  -1.88606200
H   -1.95656339  -0.33961650  -2.22836723
H   -2.87578352  -1.16348341  -0.99170158
C   -0.86698114  -0.67508425  -0.40757008
N   -0.08556044  -0.37229278   0.37498380
C    1.82270643  -0.93289499  -3.59465109
H    1.22421486  -0.07086131  -3.38583072
H    1.62590690  -1.27098861  -4.59057365
H    2.85806929  -0.67917879  -3.50217975
C    1.47718198  -2.05214067  -2.59490015
N    1.21992331  -2.88546996  -1.85054013
C   -1.06073647   0.79369655   3.32795041
H   -0.13331986   0.26274611   3.38171139
H   -1.77565582   0.20900701   2.78764721
H   -1.42461401   0.97706208   4.31732866
C   -0.84286164   2.13547726   2.60424114
N   -0.68064393   3.13449398   2.06540670
C    3.04461574  -1.33845609   1.06685402
H    2.56135755  -2.21900199   0.69807139
H    2.39769585  -0.83934892   1.75771275
H    3.95309759  -1.61104796   1.56208477
C    3.36369314  -0.39713926  -0.10945896
N    3.60126077   0.30371390  -0.98527745
C   -0.42188578  -3.68988439   1.46485999
H   -1.41593454  -3.32946087   1.30096331
H   -0.45410557  -4.73562740   1.68909764
H    0.16455701  -3.53190909   0.58393562
C    0.21113567  -2.93090160   2.64588877
N    0.68244891  -2.36580442   3.52521838
C   -3.03176484   3.27150725  -0.57790963
H   -3.85857435   3.94480980  -0.48874752
H   -2.84588354   3.06992151  -1.61217769
H   -2.16222270   3.71435997  -0.13895971
C   -3.36079858   1.95520843   0.15057799
N   -3.60577915   0.97516412   0.69297014
