42
Energy:   -153.94172214
C    0.49987796   2.03450907  -1.85213970
H    0.75295537   3.07006253  -1.94423228
H    0.01464768   1.86806954  -0.91312503
H   -0.15866990   1.75612458  -2.64820244
C    1.78182346   1.18429877  -1.92533928
N    2.73629015   0.55127855  -1.97983969
C   -1.46440993   2.74978799   1.63357376
H   -1.64794704   3.64091812   2.19669133
H   -1.69513179   2.92491146   0.60352605
H   -0.43453891   2.47482876   1.72664467
C   -2.35043267   1.61091358   2.17165254
N   -3.01011687   0.76296981   2.57227665
C   -0.19333401  -1.88281936  -2.44740259
H    0.45915797  -2.63437919  -2.84022852
H    0.31358562  -1.33606660  -1.67994379
H   -0.48003941  -1.21394459  -3.23181679
C   -1.44938082  -2.55073114  -1.85762272
N   -2.38456475  -3.04802181  -1.41850480
C    3.68574745  -1.96475338  -0.00145976
H    4.07097064  -1.81442086  -0.98832521
H    4.44120613  -2.40887459   0.61249270
H    3.39543959  -1.02302223   0.41538899
C    2.46184240  -2.89730781  -0.06469455
N    1.55058945  -3.59163698  -0.11177573
C   -4.66364523  -0.62167248  -0.27816493
H   -4.62076152  -1.64779385  -0.57839166
H   -5.54152520  -0.16677138  -0.68717696
H   -4.69637358  -0.56357748   0.78975498
C   -3.41476821   0.11684567  -0.79439855
N   -2.48492251   0.66670599  -1.17875795
C    3.54714667   1.89518946   1.35090957
H    3.06694661   1.11277130   1.90057302
H    4.33860429   2.31046288   1.93916285
H    3.94878503   1.49802842   0.44214732
C    2.52110762   2.99522042   1.02109785
N    1.75717491   3.81424346   0.77553803
C   -1.13266887  -1.98061112   1.66086550
H   -1.25633492  -2.03629682   2.72223537
H   -0.80069263  -2.92789977   1.29027803
H   -2.06728529  -1.72721118   1.20569552
C   -0.08732900  -0.90178239   1.32175915
N    0.69097405  -0.09854536   1.06927906
