42
Energy:   -156.10707853
C   -3.36006607   1.35849761  -1.78878867
H   -4.39245046   1.21872896  -2.03281196
H   -2.82952355   0.44247376  -1.94475029
H   -2.94586819   2.12149802  -2.41422419
C   -3.23392401   1.77990011  -0.31294718
N   -3.14000551   2.09365342   0.78588390
C   -2.63308188  -1.23316341   1.82154770
H   -1.96683115  -1.95132151   2.25196505
H   -3.50016749  -1.13504937   2.44076919
H   -2.13855932  -0.28716636   1.74781763
C   -3.05577331  -1.70229288   0.41696609
N   -3.37048630  -2.05158109  -0.62880876
C    1.44026142   0.87212082  -2.46396771
H    1.64315059   0.04323697  -3.10948126
H    2.34873008   1.19181301  -1.99772669
H    1.03034391   1.67791717  -3.03629539
C    0.43070992   0.44523102  -1.38222335
N   -0.32094706   0.12739216  -0.57681550
C    4.10343283  -1.76766806   0.66657320
H    3.38462505  -1.96523001   1.43415696
H    4.47220402  -0.76875407   0.77182407
H    4.91586517  -2.45867990   0.75233699
C    3.43792745  -1.92647574  -0.71309441
N    2.94242843  -2.04471527  -1.74031965
C    1.00735619   0.26968316   2.69045858
H    0.68815624   0.97716369   3.42699295
H    1.49743891  -0.55035290   3.17239101
H    0.15710757  -0.09069878   2.14999467
C    1.98513689   0.95036081   1.71463952
N    2.71313907   1.45715626   0.98809788
C   -0.19999798  -3.37290190  -1.11954410
H    0.62419178  -3.68833052  -1.72461947
H   -0.64213434  -2.49749608  -1.54742166
H   -0.92897349  -4.15484382  -1.07415000
C    0.29931140  -3.05343803   0.30180490
N    0.67106993  -2.81558266   1.36006384
C   -0.07965990   3.75811645   0.63347452
H   -0.43194099   2.85702412   1.09045462
H   -0.56305585   4.59939083   1.08456748
H    0.97832730   3.83819925   0.77185416
C   -0.39962090   3.72895019  -0.87263779
N   -0.63784641   3.70723457  -1.99400686
