42
Energy:   -159.12150359
C    1.11642990   3.87804642  -1.27707720
H    1.58197852   2.98625092  -1.64158433
H    1.70425950   4.72720941  -1.55685865
H    0.13727503   3.96736314  -1.69918780
C    1.00960355   3.81085592   0.25774317
N    0.93006648   3.76082954   1.40048670
C    2.69960639  -2.70987239  -1.29712458
H    3.41835545  -3.43207968  -1.62379964
H    2.98569580  -1.73932473  -1.64510329
H    1.73716777  -2.96083108  -1.69162520
C    2.63858218  -2.70610396   0.24166126
N    2.59314689  -2.70329819   1.38735725
C    2.90002312   0.76816116   2.06434338
H    2.43013655   1.65537717   2.43441708
H    3.89254349   0.69941131   2.45814012
H    2.33533395  -0.08812430   2.36897506
C    2.96055152   0.82259275   0.52649634
N    3.00561766   0.86311955  -0.61850068
C   -3.84938609  -0.98032563  -1.46204534
H   -2.95441178  -1.45197068  -1.81057381
H   -3.90185606   0.01564466  -1.84958784
H   -4.69952925  -1.53801172  -1.79542490
C   -3.83839191  -0.93231085   0.07716670
N   -3.83020624  -0.89656166   1.22318003
C   -0.90725262  -2.95683880   1.92246989
H   -1.79781171  -2.48123983   2.27688531
H   -0.05147325  -2.42327788   2.28003598
H   -0.87444865  -3.96463298   2.28048367
C   -0.90440898  -2.95880440   0.38247377
N   -0.90229177  -2.96026788  -0.76412335
C   -2.12779513   2.10765443   1.76330368
H   -1.69195926   2.88956927   2.34944057
H   -2.94047568   1.66804929   2.30293015
H   -2.48942844   2.51238979   0.84118128
C   -1.06493696   1.03246607   1.47021240
N   -0.27359074   0.23193946   1.25199263
C    0.20330350  -0.12375073  -2.20662171
H   -0.20919326  -0.93014630  -2.77624684
H    0.52434061  -0.48819486  -1.25319907
H    1.03932759   0.29136878  -2.72972648
C   -0.86831462   0.96392334  -2.00612304
N   -1.66618302   1.77374613  -1.85684266
