42
Energy:   -154.41616963
C   -2.03667787   1.17061277  -2.89319320
H   -2.97449171   0.71168049  -2.65912795
H   -1.23864840   0.52064789  -2.60062916
H   -1.98124630   1.35181266  -3.94628059
C   -1.91527267   2.50580572  -2.13548577
N   -1.82488098   3.49991756  -1.57133814
C   -3.22162422  -2.26515266   1.89917863
H   -3.45105335  -3.24645168   1.53957512
H   -3.98343899  -1.94768695   2.58017266
H   -2.27753235  -2.28141839   2.40249272
C   -3.15376041  -1.28631669   0.71221837
N   -3.10323273  -0.55752882  -0.17152749
C    3.19218930   0.43479669   0.14412649
H    3.67484191   1.33826185   0.45347635
H    3.91498577  -0.22632372  -0.28643613
H    2.73877653  -0.03554543   0.99153091
C    2.10981727   0.76294302  -0.90104850
N    1.30394209   1.00726288  -1.67922879
C    1.59628330  -3.72721618   2.50784361
H    1.16377984  -2.88914520   3.01329190
H    2.29038927  -4.21682071   3.15853816
H    0.82381586  -4.41318352   2.22920057
C    2.33154822  -3.24146631   1.24489762
N    2.87898637  -2.87980345   0.30457693
C   -0.80536887   1.83223382   1.31100918
H   -1.87133351   1.82225511   1.21870536
H   -0.37078243   2.16324676   0.39097432
H   -0.52183870   2.49795153   2.09925386
C   -0.30472685   0.41204616   1.63353759
N    0.06802389  -0.64534810   1.87367466
C   -0.12450429  -2.14954080  -1.46765571
H    0.93438401  -2.23662083  -1.59443433
H   -0.35427527  -1.20168397  -1.02757411
H   -0.60530743  -2.22634320  -2.42045623
C   -0.62581722  -3.27787990  -0.54725568
N   -0.99906748  -4.11797965   0.13802398
C    1.30028805   4.70547618  -1.45287533
H    0.39977099   5.26730998  -1.31755355
H    1.12264781   3.90786148  -2.14363855
H    2.06612041   5.34628591  -1.83727458
C    1.74980329   4.12253641  -0.10020491
N    2.08448783   3.68851126   0.90691970
