42
Energy:   -154.47737145
C   -2.33129938  -0.33090721   2.76015500
H   -2.28609677  -0.58867834   3.79765726
H   -1.61983088  -0.91615166   2.21591185
H   -3.31462488  -0.52674586   2.38650106
C   -2.00508590   1.16426896   2.58801264
N   -1.76220513   2.27749558   2.45984482
C   -2.38633450   0.28977548  -1.85230385
H   -3.30067729   0.10199471  -1.32922085
H   -2.25342526  -0.44903847  -2.61479200
H   -2.42429216   1.26107661  -2.29955368
C   -1.20702155   0.22543153  -0.86403220
N   -0.32896947   0.17752454  -0.12821904
C    1.93920211   0.55377910  -3.07180794
H    1.87320665   1.04344800  -2.12271935
H    1.46487533   1.15652243  -3.81787340
H    2.96805155   0.41178284  -3.32911121
C    1.23608686  -0.81411189  -2.99368495
N    0.71258560  -1.83256890  -2.93551884
C    0.20623868   3.85480794  -0.14878280
H   -0.36888575   4.72788888   0.07894892
H    1.24821595   4.08019606  -0.05722606
H   -0.05034275   3.07089732   0.53279566
C   -0.09639553   3.40207811  -1.58928558
N   -0.32172045   3.06500018  -2.66180537
C   -1.17218298  -3.77604206  -0.39146141
H   -0.76074944  -4.17012491   0.51425451
H   -0.44481799  -3.15713508  -0.87394809
H   -1.44178171  -4.58232400  -1.04117292
C   -2.42318319  -2.93917599  -0.06549565
N   -3.35460970  -2.31609116   0.17720067
C    2.44342263  -2.02542842   0.17883629
H    3.45550563  -2.10390562   0.51711062
H    2.29015749  -1.06538274  -0.26806547
H    2.24847639  -2.79033012  -0.54353511
C    1.48794209  -2.19334167   1.37485555
N    0.77654339  -2.31836072   2.26534625
C    1.61497171   1.28020714   2.64034788
H    1.12974597   2.20120606   2.88776888
H    2.28748600   1.00879651   3.42708792
H    0.88051812   0.51176401   2.51798708
C    2.40248175   1.45126956   1.32803481
N    2.98881876   1.57863332   0.35095808
