42
Energy:   -155.01087016
C    1.45816717  -1.50330195  -3.03623591
H    0.39332344  -1.40040117  -3.05671620
H    1.74355722  -2.36999510  -3.59506916
H    1.90880376  -0.63504318  -3.46977075
C    1.93141880  -1.65365573  -1.57848880
N    2.28377615  -1.76560096  -0.49312982
C   -3.40556977  -0.71845666   0.66079745
H   -3.61223453   0.33099131   0.63166276
H   -3.10917626  -0.99625986   1.65068398
H   -4.28468371  -1.26286734   0.38570691
C   -2.26944320  -1.04550444  -0.32604406
N   -1.42354532  -1.28900639  -1.06079241
C    0.33333742  -0.61765894   2.14746288
H    1.08283787  -0.87363787   2.86692382
H    0.31691981  -1.35464226   1.37190815
H   -0.62303775  -0.58208555   2.62598159
C    0.65471204   0.76026780   1.53948569
N    0.89399004   1.78619689   1.08681904
C    0.00575343  -4.43216310  -0.02586586
H   -0.22370793  -3.91906433  -0.93634777
H   -0.13181362  -5.48413768  -0.16487621
H    1.02221385  -4.23828337   0.24638030
C   -0.92894484  -3.93562577   1.09278951
N   -1.62487018  -3.56593116   1.92567928
C   -0.19253704   1.88425830  -2.08592277
H   -0.30916702   1.74247582  -3.14005528
H    0.21829470   0.99760090  -1.65008447
H    0.46685646   2.70785186  -1.90761696
C   -1.56500380   2.17908440  -1.45266725
N   -2.58686770   2.39859584  -0.98117974
C   -1.88841554   3.92400910   1.92843416
H   -1.84468223   4.65883078   2.70498080
H   -2.66994981   4.17609021   1.24246156
H   -0.95310159   3.89747984   1.40941287
C   -2.17268713   2.54178669   2.54507901
N   -2.38434024   1.51265928   3.00419913
C    4.09966446   1.31832292   0.14005498
H    3.80617687   0.37783468   0.55748413
H    3.70093713   2.11284939   0.73557433
H    5.16751729   1.38455646   0.12582331
C    3.55902572   1.43307217  -1.29735323
N    3.15649560   1.51850820  -2.36756898
