42
Energy:   -157.04537878
C    2.83062188  -2.78849138  -0.09460103
H    2.96883050  -2.12909633  -0.92586316
H    3.52725806  -3.59786987  -0.16170972
H    2.99356222  -2.25231138   0.81691449
C    1.39455463  -3.34432671  -0.11351961
N    0.32533728  -3.75817138  -0.12760535
C   -0.01158806   2.28187091   2.96882074
H    0.86926144   1.68181502   3.06335786
H    0.01423284   3.06975900   3.69232937
H   -0.05325485   2.70179178   1.98554589
C   -1.25654887   1.40715923   3.20662756
N   -2.18347878   0.75589663   3.38368554
C   -0.92607615  -1.91087271  -2.75520562
H   -1.57165375  -1.48732037  -3.49597087
H   -1.33704673  -1.73734557  -1.78263655
H   -0.83524599  -2.96398910  -2.92132261
C    0.46383837  -1.25451931  -2.84974573
N    1.49869291  -0.76583437  -2.92013514
C    0.22149564   2.53920575  -3.21097281
H    1.25783741   2.35248665  -3.40079346
H   -0.14182039   3.27003605  -3.90291763
H   -0.33186922   1.63094021  -3.32819112
C    0.04927309   3.06331673  -1.77318037
N   -0.07895442   3.45354117  -0.70267855
C   -0.84562540  -2.33391674   2.79365905
H   -0.73784599  -3.39682173   2.73435684
H   -1.32766703  -1.97437035   1.90863852
H   -1.43711878  -2.08257641   3.64914880
C    0.54434322  -1.68334717   2.92151240
N    1.57923803  -1.19896855   3.01670503
C   -3.15970152   1.45126793   0.06983260
H   -2.47105730   2.20981793   0.37849296
H   -2.98997517   0.56199659   0.64017333
H   -4.16120459   1.79211665   0.23018483
C   -2.95369734   1.14884105  -1.42606187
N   -2.80031787   0.92367049  -2.53982329
C    2.33841743   0.91148702   0.16160620
H    2.32066748   1.97875589   0.23591822
H    2.82500055   0.62528932  -0.74736400
H    2.87196830   0.50474288   0.99514191
C    0.89573119   0.37273496   0.16322174
N   -0.17841430  -0.02839044   0.16442459
