42
Energy:   -157.93457007
C   -2.47407806   2.29921059  -1.99728595
H   -2.12883170   3.28501308  -2.22944664
H   -3.44329139   2.15064678  -2.42560055
H   -1.79243565   1.57878672  -2.39884812
C   -2.55708770   2.13108430  -0.46874320
N   -2.61889216   2.00590663   0.66932636
C   -2.92864918  -1.51192284   0.23651181
H   -2.67376194  -2.48178055   0.60975263
H   -3.99176151  -1.39174783   0.25229863
H   -2.47584013  -0.76266846   0.85171986
C   -2.41711483  -1.36738088  -1.20883944
N   -2.03625426  -1.25976281  -2.28496914
C    1.15569644   0.44244989  -2.63616203
H    2.08896170  -0.06003126  -2.78254794
H    1.26317297   1.47595896  -2.89151840
H    0.40902231  -0.00321551  -3.25966759
C    0.73245810   0.31959142  -1.16056889
N    0.41733791   0.22811772  -0.06192273
C    3.20279466  -1.28815798   1.58785673
H    3.30678306  -0.23855093   1.76788909
H    3.95765542  -1.81937052   2.12905683
H    2.23620491  -1.61179870   1.91321812
C    3.35786083  -1.56845831   0.08154129
N    3.47331464  -1.77715466  -1.03997902
C   -0.67050545  -0.15082827   3.10315001
H   -1.36469101   0.53832320   2.66947175
H   -1.07232983  -0.53368529   4.01794877
H   -0.49836867  -0.95900043   2.42335167
C    0.65918363   0.57150173   3.38909810
N    1.64919759   1.10930926   3.60199945
C    0.63339823  -3.53116638  -1.66971981
H    1.65262992  -3.83680811  -1.78219235
H    0.47950545  -2.60611423  -2.18498151
H   -0.01094540  -4.27993835  -2.08089000
C    0.31532964  -3.34498214  -0.17447141
N    0.07851312  -3.20635951   0.93880900
C    0.71406555   3.53239062   1.27248401
H    1.61843834   3.02259896   1.53156410
H   -0.12504626   2.97824808   1.63815670
H    0.71611579   4.50797531   1.71194892
C    0.61718751   3.65954809  -0.25919664
N    0.54505740   3.75422261  -1.39960251
