42
Energy:   -153.85757726
C   -2.17135728   0.83700818   1.73747924
H   -2.22624620   1.80949239   2.18038087
H   -1.16866927   0.64785714   1.41539581
H   -2.45955140   0.10021480   2.45788104
C   -3.12069703   0.77002554   0.52674915
N   -3.82752362   0.72015393  -0.37469444
C   -3.42513525  -1.37241434  -2.94477896
H   -4.21939836  -0.65976163  -2.86621431
H   -3.10274606  -1.65664360  -1.96489221
H   -3.77246877  -2.23704881  -3.47076922
C   -2.24608683  -0.74459546  -3.71112631
N   -1.36823169  -0.27715576  -4.28170675
C   -0.86231770   2.38572457  -2.06596981
H   -1.12156298   3.00885249  -2.89627317
H   -1.51569311   1.53884083  -2.03790570
H    0.14896403   2.05263141  -2.17207022
C   -1.00431610   3.18717228  -0.75863740
N   -1.11004036   3.78388652   0.21473101
C   -0.18584603  -3.06648617   1.95185962
H   -1.15489738  -2.87454525   1.54076554
H   -0.26399246  -3.81018458   2.71717322
H    0.46631032  -3.41685923   1.17931195
C    0.38271936  -1.76809024   2.55394053
N    0.80604213  -0.80137546   3.00221713
C    4.13160852  -0.68615613   1.56730641
H    5.05547096  -1.01970103   1.99171916
H    3.48751700  -0.33491545   2.34619998
H    4.32264673   0.10865994   0.87689283
C    3.45399411  -1.85556791   0.82912296
N    2.94947938  -2.72624814   0.27951183
C    1.25952708   2.59305756   2.47059001
H    1.86249638   3.45098024   2.68342064
H    1.39526130   1.86195645   3.23998359
H    0.22998760   2.88174800   2.43052286
C    1.67811420   1.99502981   1.11458572
N    1.98977133   1.54977096   0.10497889
C    1.53594624  -0.97284279  -2.29640212
H    1.21639742  -0.72627582  -3.28735795
H    2.02926210  -1.92228188  -2.30659902
H    2.21259418  -0.22310547  -1.94293273
C    0.31198219  -1.04029378  -1.36422060
N   -0.59931467  -1.09051410  -0.67016909
