42
Energy:   -155.03042403
C    1.67190527   1.41875638  -1.77714401
H    1.19739491   0.46350230  -1.86217191
H    2.60518973   1.40122605  -2.30018502
H    1.03933364   2.17025345  -2.20141324
C    1.92204422   1.73724530  -0.29134614
N    2.10828404   1.97437478   0.81489792
C   -3.52403158   1.10366053  -0.07393508
H   -3.19578460   0.11252362   0.16016261
H   -4.40427966   1.05398315  -0.68023086
H   -3.74381080   1.62977446   0.83149317
C   -2.41324288   1.84444559  -0.84138928
N   -1.58621020   2.39599375  -1.41279382
C   -0.98204272  -0.84176102  -3.24287256
H   -0.94154628  -1.12823500  -4.27301473
H   -0.15744619  -1.27787253  -2.71870999
H   -0.92944148   0.22423256  -3.16678124
C   -2.30283874  -1.33601283  -2.62415370
N   -3.28623141  -1.70400577  -2.16348938
C    3.48108128  -1.39832719   1.44592994
H    3.23985866  -0.39994881   1.74585066
H    4.54279536  -1.52982960   1.46514996
H    3.02338226  -2.09324621   2.11860985
C    2.95893042  -1.64581708   0.01844711
N    2.57016537  -1.83008456  -1.04437874
C   -0.05716364   4.50389278   1.19267225
H   -0.43925602   5.47350970   1.43505341
H   -0.08134142   4.36594586   0.13187765
H    0.95139821   4.42085442   1.54024486
C   -0.92401499   3.42642091   1.87033228
N   -1.56942522   2.62419413   2.37488097
C   -0.06729325  -0.32072685   2.72471705
H    0.62022861   0.49069896   2.84219916
H    0.33626745  -1.19934816   3.18304274
H   -0.99738283  -0.07046306   3.19076479
C   -0.29900319  -0.58420879   1.22522121
N   -0.47152177  -0.78038308   0.10877840
C   -0.18824328  -4.20034979  -0.43449080
H   -1.17688946  -3.79297995  -0.47358982
H   -0.22830255  -5.25261390  -0.62431858
H    0.42199880  -3.72727360  -1.17523543
C    0.41403221  -3.95305976   0.96111368
N    0.86245369  -3.76894109   2.00020466
