42
Energy:   -157.92584705
C   -0.07844783  -3.68332987  -1.38488237
H    0.35573214  -2.87041964  -1.92854117
H   -1.05277194  -3.89287179  -1.77434841
H    0.54007432  -4.55060048  -1.48573440
C   -0.19125375  -3.30350716   0.10327406
N   -0.27524288  -3.02071189   1.21127416
C   -1.17905669   3.47993585   0.27435422
H   -1.35138487   3.23949526  -0.75394121
H   -0.16778716   3.24297482   0.53141940
H   -1.35128621   4.52443220   0.43012153
C   -2.13862503   2.66374192   1.16016235
N   -2.85306728   2.05604843   1.81968677
C   -0.47648203   0.00129362  -2.99635299
H   -1.30705598  -0.62751617  -3.24057696
H    0.42229593  -0.42649513  -3.38890115
H   -0.62580708   0.97113999  -3.42296656
C   -0.35972818   0.12615209  -1.46586977
N   -0.27279963   0.21911491  -0.32635544
C    2.84559268   2.27386894  -0.95855453
H    3.37200222   3.09189775  -0.51288420
H    3.52443737   1.68922977  -1.54358959
H    2.41942224   1.66304659  -0.19032676
C    1.72429242   2.81709086  -1.86364882
N    0.88943341   3.22154428  -2.53753266
C   -3.38480011  -1.18528354   0.93549307
H   -4.22578531  -0.52755049   1.00642485
H   -2.50160647  -0.67029169   1.25116930
H   -3.54438824  -2.03722193   1.56289381
C   -3.21586081  -1.64697712  -0.52392412
N   -3.09007782  -1.99072899  -1.61052656
C    2.87918547  -1.26598949   1.08431180
H    1.91432708  -1.41259070   1.52301052
H    3.26843666  -0.31661670   1.38774860
H    3.54008705  -2.04254888   1.40844713
C    2.75642509  -1.30371554  -0.45032387
N    2.66502441  -1.33180430  -1.59292988
C   -0.26737394   0.12256276   3.21493947
H   -1.16265387   0.63561433   3.49805095
H    0.12601145  -0.40157250   4.06076999
H   -0.48775654  -0.57493532   2.43402524
C    0.77216708   1.14239262   2.71403877
N    1.54615263   1.90170231   2.34109543
