42
Energy:   -153.70209201
C   -0.62037330   1.26778236  -2.55069097
H   -0.91041444   2.04739293  -1.87765035
H   -1.22791058   1.31168643  -3.43038977
H    0.40741651   1.39348230  -2.82040696
C   -0.80778071  -0.09837952  -1.86506704
N   -0.94731404  -1.11554914  -1.35458885
C    1.58072663  -2.75750597  -3.06186015
H    2.06864265  -1.80722262  -3.12350172
H    0.54229013  -2.64085381  -3.29194925
H    2.02713574  -3.43364659  -3.76075346
C    1.73056945  -3.31995950  -1.63609959
N    1.84213424  -3.73873172  -0.57455605
C   -3.71364032   0.39663561   0.56582537
H   -2.77915582  -0.12299679   0.60608774
H   -4.51564239  -0.30234503   0.68035850
H   -3.75449007   1.11870469   1.35439789
C   -3.84552314   1.11128901  -0.79192183
N   -3.94371589   1.64338094  -1.80282633
C   -1.14178763  -3.71168685   1.04130021
H   -1.96387750  -4.36727237   1.23948205
H   -0.22431596  -4.20797779   1.27971192
H   -1.14258072  -3.44154478   0.00596368
C   -1.27792488  -2.44264619   1.90304405
N   -1.37928526  -1.49778773   2.54465151
C    1.94663556  -0.63781396   1.05431366
H    2.32207830  -1.63405470   1.16130588
H    0.88286292  -0.64326700   1.16945322
H    2.38316887  -0.00985949   1.80265246
C    2.30903509  -0.09990780  -0.34244098
N    2.57885801   0.30058779  -1.38238830
C   -0.23214774   1.66791310   3.46417662
H   -0.78098214   0.82106026   3.81987488
H   -0.52924415   2.53979824   4.00864802
H    0.81501629   1.49906926   3.60502528
C   -0.52177365   1.87489456   1.96588575
N   -0.73741330   2.02900166   0.85034010
C    2.13814207   3.68085579  -0.55516549
H    2.68863651   3.13368997  -1.29168814
H    2.38811433   4.71912897  -0.62151119
H    1.08959204   3.55475442  -0.72703864
C    2.49519723   3.15551907   0.84773613
N    2.76104103   2.76438200   1.89226015
