7
Energy:   -393.20614067
O   -1.05622727  -0.60744287  -0.89759364
H   -1.79109903  -0.22272223  -0.41990611
H   -1.01103822  -0.10679822  -1.71217619
O    1.03272623   0.35075202   0.75087547
H    0.76351111   1.09913313   1.28349240
H    1.80176153   0.00048078   1.20046041
H    0.30817139  -0.42101207  -0.14104123
