7
Energy:   -402.59293476
O    0.59309243  -0.92256942   0.99846645
H    1.10180467  -0.38106765   1.60197250
H   -0.03874045  -1.37556151   1.55687242
O   -0.50146633   0.89710290  -0.99508261
H    0.04457340   1.20946683  -1.71654033
H   -1.34644297   0.70243793  -1.40048596
H    0.10958160  -0.13073974  -0.05307327
