7
Energy:   -420.81833671
O    0.38846818  -0.12101386  -1.39207528
H    1.30701038   0.02670778  -1.61722057
H   -0.09709284   0.47669403  -1.96058879
O   -0.50006607   0.00051080   1.29885859
H    0.15734858   0.37352345   1.88613995
H   -1.15341238  -0.38396763   1.88327863
H   -0.04660556  -0.34590774  -0.05356986
