7
Energy:   -399.45233222
O    0.19856932   0.56155279  -1.25812730
H   -0.12043835   1.24539290  -1.84704891
H    0.98349374   0.22173289  -1.68783412
O   -0.26540968  -0.45421058   1.31508864
H   -0.13543073  -0.10756043   2.19779527
H   -0.18497669  -1.40272534   1.41549848
H   -0.49554549  -0.13851725  -0.18778743
