7
Energy:   -398.51197811
O   -0.26210969  -0.45636964  -1.22742871
H   -0.74652919   0.03816148  -1.88849495
H    0.51291933  -0.77766649  -1.68822173
O    0.13261382   0.30182651   1.29563014
H   -0.40077108   0.51984451   2.05996028
H    0.75798066   1.02312067   1.22575244
H    0.08641571  -0.63679328   0.20931433
