7
Energy:   -417.41593181
O   -0.36083444  -0.40577594   1.38971214
H   -0.95192267   0.13408097   1.91449883
H    0.22631914  -0.80962715   2.02876356
O    0.27892097   0.31495185  -1.39805541
H   -0.06504302   1.05762854  -1.89439395
H    0.98545729  -0.03139452  -1.94310812
H   -0.07689375  -0.23718508  -0.10474846
