7
Energy:   -399.00967245
O   -0.70175374   1.29843673   0.25887450
H   -0.86787304   1.85287562   1.02126138
H   -0.11076120   1.81477861  -0.28916813
O    0.57372395  -1.29550740  -0.20255138
H    0.35581538  -2.21249942  -0.03559831
H    1.13345639  -1.31931417  -0.97867295
H   -0.35272442  -0.15833857   0.22007403
