7
Energy:   -398.19121357
O    0.03922625   0.82347356   1.16988165
H   -0.58244301   1.48495172   1.47353577
H    0.79959804   0.92826961   1.74179456
O   -0.09292539  -1.00052791  -1.13415965
H    0.06591791  -1.73709325  -1.72447495
H   -0.25331250  -0.25725941  -1.71558871
H    0.06007988  -0.16371040   0.19120361
