7
Energy:   -412.70075352
O    1.12093070  -0.44777346  -0.36446526
H    1.05441692  -0.98997222  -1.15048579
H    2.05561227  -0.25866818  -0.28175252
O   -1.13807071   0.46564379   0.58284314
H   -1.73983341   1.19985362   0.70551923
H   -1.52412939  -0.04470659  -0.12900870
H    0.20353073   0.07429623   0.58442550
