7
Energy:   -428.39885976
O   -1.26395101   0.30754434  -0.66533031
H   -1.41985244   0.55453575  -1.57687945
H   -2.10864177   0.43646264  -0.23392628
O    1.26080387  -0.31517564   0.66806818
H    2.16226159  -0.12287138   0.40995021
H    1.34612448  -0.85363970   1.45483925
H    0.02817077  -0.00303304  -0.06566909
