7
Energy:   -393.95167480
O   -0.32600302   0.77556900  -1.12041105
H   -0.56319704   1.52051964  -0.56812545
H   -0.23673650   1.14647240  -1.99830284
O    0.29436799  -0.91729185   0.99426186
H    1.07749484  -0.94199198   1.54411101
H   -0.43330954  -1.01421148   1.60852877
H    0.23085663  -0.55461685  -0.44125250
