7
Energy:   -412.11195702
O   -0.66752930  -0.80324672  -0.77518101
H   -1.36322374  -0.81678871  -1.43249198
H   -0.51678133  -1.72512491  -0.56626118
O    0.74251800   0.96245464   0.70118569
H    0.58668323   1.74191659   1.23446464
H    1.04112505   0.30067190   1.32497194
H    0.15370256   0.28558999  -0.50341160
