7
Energy:   -421.93137333
O   -1.01172048   0.84369348   0.32375796
H   -1.81219609   0.60151068  -0.14187938
H   -1.27759133   1.55825844   0.90249923
O    1.07062090  -0.79200373  -0.27021703
H    1.81916817  -0.80337198  -0.86668966
H    0.83008668  -1.71298750  -0.16940019
H    0.39420513   0.31209255   0.21735939
