7
Energy:   -394.23655827
O   -1.12104974  -0.02577357   0.89861031
H   -0.84117442   0.87961098   1.03344523
H   -1.98498462  -0.07339809   1.30797601
O    1.00487595  -0.15986628  -0.88229645
H    1.92758969   0.04202881  -0.72715271
H    0.91274663  -0.14456966  -1.83492967
H    0.18661217  -0.46999912   0.22045746
