7
Energy:   -393.82144424
O    0.74885955   0.39010433  -1.11857377
H    0.68494191   1.18370267  -1.64993811
H    0.71128961  -0.32652188  -1.75203033
O   -0.69530611  -0.36035605   1.16783360
H   -0.37135384  -1.02005076   1.78109510
H   -1.05289916   0.33061325   1.72543605
H   -0.06178735  -0.24109673  -0.20385595
