7
Energy:   -402.70310566
O   -1.22954032  -0.43537325   0.71350699
H   -1.21538373  -0.11765422   1.61632816
H   -1.39689160  -1.37453940   0.79219846
O    1.04095186   0.48789659  -0.89836229
H    1.24121475   1.42386234  -0.90809559
H    1.89683207   0.05946267  -0.88630867
H   -0.26418287  -0.08159554  -0.37035425
