7
Energy:   -397.76090252
O    1.17734226   0.27799805   0.70423936
H    1.86144875   0.94612460   0.74710024
H    1.57944848  -0.50206235   1.08640191
O   -1.25973408  -0.13212631  -0.88259290
H   -2.08231975   0.15896325  -0.48908111
H   -1.30928016  -1.08784147  -0.86295676
H    0.08808138   0.29248148  -0.23205323
