7
Energy:   -404.41041441
O    1.10183570   0.00455702   0.55703700
H    1.56266647   0.83878848   0.64605789
H    1.79596921  -0.63912077   0.41529988
O   -1.32680736  -0.04757097  -0.37353198
H   -1.59661465   0.75321354  -0.82317632
H   -1.15245890  -0.67140772  -1.07827461
H   -0.29524829  -0.24249025   0.62760691
