7
Energy:   -421.81105500
O   -0.11687617  -0.80020792  -1.23969859
H    0.65625388  -1.32585294  -1.44512277
H   -0.61816360  -0.78189845  -2.05493323
O    0.08488308   0.75324131   1.25978406
H   -0.15059460   0.49340058   2.15043826
H    0.26642554   1.69091106   1.32342069
H   -0.11782982  -0.00445225  -0.00547799
