7
Energy:   -407.98825217
O    0.31135990  -0.89114089   1.00304683
H   -0.55012437  -0.60584575   1.30748628
H    0.50361624  -1.67114842   1.52348665
O   -0.13071078   0.88390231  -0.97331751
H   -0.41700301   1.79643825  -0.93398853
H   -0.36943294   0.59523786  -1.85417869
H    0.62452325  -0.11673870  -0.10013259
