7
Energy:   -399.09134346
O   -1.03916251   0.36356335  -0.89863956
H   -0.70162628  -0.30177077  -1.49833252
H   -1.35874865   1.06178671  -1.47011195
O    0.83227580  -0.36927225   1.04608375
H    1.13032188  -0.06255826   1.90242883
H    1.63810902  -0.54603483   0.56067705
H   -0.43789023  -0.16085061   0.31288891
