7
Energy:   -403.07901963
O   -0.66895283  -0.39464016  -1.09443417
H   -1.24072572  -0.37098428  -1.86173334
H   -0.45515029  -1.32097024  -0.98293125
O    0.61680563   0.66213297   1.10281642
H    0.39656632   0.49932419   2.01999677
H    1.45078975   0.21077958   0.97249968
H   -0.07992788   0.64103850  -0.18137457
