7
Energy:   -423.10970580
O   -0.15910600  -0.33013731  -1.41506488
H    0.26428792   0.29025691  -2.00842856
H    0.24019865  -1.17422683  -1.62554176
O   -0.01393448   0.29568530   1.34600116
H   -0.29197049  -0.11618545   2.16410281
H    0.31864508   1.15351356   1.61010979
H   -0.29737776  -0.11290642  -0.03774955
