7
Energy:   -413.82054622
O   -0.60595425  -0.38869977  -1.25450822
H   -0.41843207  -1.22278628  -1.68505087
H   -1.56076220  -0.32204628  -1.26595120
O    0.65850715   0.42451860   1.14529832
H    1.61066177   0.33245629   1.17932706
H    0.44752803   1.00730667   1.87473490
H   -0.18075891   0.16885382   0.07420661
