7
Energy:   -399.02216126
O    0.46614130   1.03614199  -0.87024341
H    0.12573610   1.92910742  -0.92473107
H    0.54327997   0.75270842  -1.78125761
O   -0.32074074  -0.97707583   0.92262031
H   -0.79345203  -1.07648678   1.74899392
H   -0.49787340  -1.78792170   0.44577143
H    0.44839741   0.10295675   0.48532203
