7
Energy:   -402.01420491
O   -0.27474959  -0.60905884  -1.27612903
H   -1.18422109  -0.89850828  -1.34901563
H    0.24221728  -1.38883193  -1.47844322
O    0.41542180   0.86036494   1.07190522
H   -0.27651557   1.14625456   1.66832927
H    1.13346326   0.59544608   1.64676720
H   -0.14938460   0.17721623  -0.19389972
