7
Energy:   -396.53243377
O    0.39301980   1.28819346   0.48923351
H    1.05807766   1.35035629  -0.19637984
H    0.88635777   1.34219367   1.30772815
O   -0.55763798  -1.05863609  -0.46351336
H   -1.33910595  -1.22606445  -0.99030308
H   -0.00759037  -1.83035803  -0.59814147
H   -0.38716678   0.01011007   0.49331499
