7
Energy:   -413.89524453
O   -0.57669317   0.12871344  -1.22331499
H   -1.41781259   0.56819021  -1.09837442
H   -0.71208121  -0.43699512  -1.98349638
O    0.76706406  -0.08404811   1.11613989
H    0.12786197   0.38227827   1.65483484
H    1.26585030  -0.61259714   1.73910061
H    0.49841940   0.03391755  -0.16510188
