7
Energy:   -424.95545567
O   -0.12564059   1.15431783  -0.71892770
H   -0.70480910   0.81075678  -1.39919345
H    0.18678608   1.98876597  -1.06866722
O    0.18894619  -1.02753052   0.91805016
H   -0.45322588  -1.63512747   1.28502812
H    0.84200084  -1.59064162   0.50252957
H    0.03538992   0.25969699   0.42012522
