7
Energy:   -416.90881438
O    0.88289395   0.06653105  -1.00834087
H    1.67226028   0.56230494  -0.79076121
H    0.56696786   0.46261256  -1.82046277
O   -0.99562394  -0.22464091   0.84894335
H   -0.88233424   0.55745475   1.38905784
H   -1.23376414  -0.91285773   1.47013471
H    0.05770654  -0.47948067  -0.00172611
