72
Energy:   -318.75832374
C    3.51968023   2.35085798  -2.96306794
H    2.74485908   2.43578647  -3.69610240
H    3.89916706   1.35042011  -2.95947459
H    4.31065617   3.03150782  -3.19965188
C    2.95025104   2.68888077  -1.57271151
N    2.52628512   2.94055410  -0.53752795
C   -0.40466528   3.72308958  -3.07108545
H    0.29955089   3.27836164  -3.74279731
H   -0.01793108   3.68769059  -2.07404851
H   -0.57201418   4.74168848  -3.35277625
C   -1.73396335   2.94809107  -3.13388630
N   -2.72368619   2.37106945  -3.18064439
C   -2.29698505  -0.71787622   3.07370731
H   -2.46952426  -1.05062225   4.07591012
H   -1.27570000  -0.89673894   2.80935136
H   -2.93763836  -1.25357176   2.40475835
C   -2.59648325   0.78946176   2.97454565
N   -2.81947327   1.91174341   2.90071530
C   -2.08042312  -3.79791826   0.60496523
H   -1.84846562  -4.74165130   1.05269711
H   -3.14206656  -3.66716683   0.57820026
H   -1.63864157  -3.01173253   1.18084730
C   -1.52212979  -3.75935213  -0.82975468
N   -1.10645503  -3.73063790  -1.89796886
C    1.92946390  -4.47469099   0.40040596
H    2.40025192  -5.27163457  -0.13638053
H    1.49421403  -3.78583303  -0.29308619
H    1.16509725  -4.87399482   1.03380881
C    2.97843395  -3.74442817   1.25946244
N    3.75943984  -3.20071431   1.89906904
C   -2.93893038  -0.91628352  -2.98154267
H   -2.89674492  -1.94844168  -3.26041560
H   -2.00747688  -0.44499976  -3.21645774
H   -3.72837204  -0.43362690  -3.51887269
C   -3.20403727  -0.80370821  -1.46871580
N   -3.40142140  -0.71989078  -0.34234744
C    1.51640085  -1.92333067   4.07972402
H    1.05791919  -1.27985176   4.80127072
H    1.78183433  -1.35514990   3.21276683
H    2.39626303  -2.36246317   4.50151104
C    0.52790034  -3.03519432   3.68194771
N   -0.20808322  -3.86302734   3.38578517
C   -4.27527001   2.88603069  -0.01507710
H   -4.64525306   2.81099158  -1.01626732
H   -4.99284285   3.39610175   0.59304775
H   -4.10788392   1.90493720   0.37777982
C   -2.95091099   3.67195251  -0.01477708
N   -1.96486550   4.25710702  -0.01455370
C   -0.50532895   1.03893940  -0.17993246
H   -0.80979152   1.00717438  -1.20520984
H    0.24353720   1.79266223  -0.05343947
H   -1.34973904   1.26821898   0.43594217
C    0.07038244  -0.33013380   0.22724682
N    0.49902574  -1.34947103   0.53041031
C    1.52770165  -2.04035783  -3.06094458
H    0.90171233  -2.69873010  -3.62626176
H    1.47230249  -2.29839837  -2.02400432
H    2.53901353  -2.13287059  -3.39797389
C    1.05285772  -0.58825665  -3.25465933
N    0.69931483   0.49289868  -3.39888877
C    0.32645409   3.79125757   2.44233378
H   -0.71957675   4.00151307   2.52303242
H    0.63713638   3.91206071   1.42558297
H    0.87504452   4.46624222   3.06550579
C    0.59524668   2.34330469   2.89264813
N    0.79537497   1.26523795   3.22792763
C    3.69797364   0.16589603   1.33470390
H    4.32132357  -0.42956318   1.96855197
H    2.68284584   0.09653617   1.66576862
H    4.01783532   1.18611298   1.37647681
C    3.80147938  -0.34561216  -0.11417358
N    3.87854411  -0.72645326  -1.19292871
