72
Energy:   -318.54602093
C    0.46400202  -0.17349267   1.16409238
H    0.98792863   0.70948826   1.46533279
H    1.07176984  -1.03250177   1.35805303
H   -0.44990082  -0.25141260   1.71509978
C    0.15054441  -0.09584756  -0.34166842
N   -0.08283903  -0.03803725  -1.46277577
C    2.81874348   1.92208226   3.44374584
H    3.21609232   2.01348980   2.45447402
H    2.43771000   0.93225618   3.58501476
H    3.59267404   2.11163653   4.15788852
C    1.68137808   2.94231873   3.63640484
N    0.83455784   3.70193115   3.77984823
C    1.42175466  -2.11263367  -4.02305825
H    2.30100818  -2.69335528  -3.83711245
H    0.90980594  -2.50408510  -4.87720893
H    0.77772241  -2.15734662  -3.16975742
C    1.82003603  -0.64907539  -4.28945853
N    2.11657462   0.44061028  -4.48780565
C    1.39075746   3.12603250  -2.59604289
H    2.26360280   3.10613575  -3.21462621
H    0.90015569   4.07103793  -2.70174873
H    0.72480431   2.34317526  -2.89359966
C    1.79908793   2.92129639  -1.12534600
N    2.10310853   2.76886105  -0.03034531
C   -1.23170427  -3.61197089  -1.47896124
H   -1.37899631  -3.75113399  -2.52959860
H   -0.86273077  -4.51886014  -1.04732535
H   -0.52275189  -2.82664275  -1.31913217
C   -2.57112368  -3.23672227  -0.81809506
N   -3.56838231  -2.95733261  -0.32605015
C    2.72058779  -3.74602711   1.64813774
H    2.02112097  -4.49637291   1.95248544
H    2.61342936  -2.88407362   2.27299960
H    3.71570881  -4.12918550   1.73658493
C    2.44929433  -3.35519638   0.18347013
N    2.24730402  -3.06420515  -0.90704148
C   -3.70029336   0.24038099  -1.15887775
H   -3.84080353   1.17975424  -1.65155915
H   -4.61095444  -0.32032237  -1.19362324
H   -2.92470308  -0.30813938  -1.65130460
C   -3.30366209   0.48483915   0.30895189
N   -3.00835208   0.66684936   1.40181777
C   -2.24528535   2.16704760   4.55390326
H   -2.94777305   2.06133314   3.75375598
H   -1.75673405   3.11585624   4.47658009
H   -2.75939476   2.10585638   5.49030395
C   -1.19744177   1.04168981   4.46908763
N   -0.41727460   0.20380979   4.40593854
C   -2.76676769  -2.33603948   3.10673363
H   -2.58668957  -1.31852033   3.38445080
H   -3.00904926  -2.90631772   3.97907614
H   -3.58226695  -2.37805811   2.41528986
C   -1.50352965  -2.91925770   2.44666835
N   -0.56299151  -3.35349018   1.95521976
C   -1.56774017   1.04479367  -4.39835178
H   -2.38357447   1.50116423  -4.91896727
H   -0.65600910   1.23931564  -4.92352486
H   -1.50366976   1.45030033  -3.41024327
C   -1.79797373  -0.47563416  -4.31533547
N   -1.96939308  -1.60766180  -4.25352605
C    3.87565774   0.02420254  -1.35291640
H    4.40986421   0.92613269  -1.56749885
H    2.85656640   0.13139541  -1.66091253
H    4.32431898  -0.79052066  -1.88190440
C    3.92779279  -0.25558840   0.16055609
N    3.96660970  -0.46390547   1.28740515
C   -1.12745592   3.56328297   1.11290578
H   -0.92251609   2.60405458   1.54043444
H   -1.91562111   4.03669417   1.66024164
H   -0.24709405   4.16970757   1.15885441
C   -1.55511111   3.38969812  -0.35630467
N   -1.87351983   3.26045631  -1.45019863
