72
Energy:   -318.15677878
C    0.66342235  -3.17605465   2.15258504
H    1.50113997  -3.83772387   2.22554542
H   -0.14309124  -3.55507255   2.74485217
H    0.94261780  -2.20651323   2.50886925
C    0.21667835  -3.07365785   0.68236918
N   -0.11594287  -2.99741877  -0.41227336
C    2.52421932   2.66330659   2.39224604
H    1.64602025   2.20425438   2.79590138
H    2.54100424   3.69886889   2.66099887
H    3.39310518   2.17854140   2.78586917
C    2.51346565   2.53126229   0.85795511
N    2.50545905   2.43294930  -0.28439423
C    1.71790116   2.13291056  -3.92089100
H    1.61884053   2.70730713  -3.02358628
H    2.09798956   2.75614920  -4.70319880
H    2.39370840   1.32077499  -3.75171811
C    0.34077153   1.57807827  -4.32988383
N   -0.68456407   1.16498042  -4.63439758
C   -0.66147226   4.25539024   0.66608074
H   -1.64688146   4.53227183   0.97785867
H    0.03487192   5.00637050   0.97597189
H   -0.39688065   3.31858376   1.11024735
C   -0.62624879   4.12433836  -0.86792862
N   -0.60002332   4.02676427  -2.01006831
C   -0.14689963   0.39596086  -1.15491933
H   -0.73608691  -0.42252769  -1.51245957
H    0.85864140   0.29151724  -1.50545870
H   -0.55707063   1.31557523  -1.51681470
C   -0.15579820   0.40073603   0.38504756
N   -0.16242359   0.40429137   1.53162291
C    2.22223910  -4.91111867  -2.37980379
H    2.69048078  -4.27146137  -3.09847509
H    1.17160894  -4.71005375  -2.35434297
H    2.38329869  -5.93295196  -2.65332825
C    2.82863885  -4.65045368  -0.98842565
N    3.28013102  -4.45637674   0.04751861
C   -3.45050127   1.87293380  -2.70715786
H   -3.18141692   0.88892097  -3.02997754
H   -2.78497240   2.58670134  -3.14591327
H   -4.45373992   2.08639069  -3.01186666
C   -3.35173177   1.95466677  -1.17250340
N   -3.27819338   2.01552069  -0.02988340
C    0.75837078  -0.09897233   4.84305796
H    1.28545812   0.04411054   3.92294579
H    1.34940337  -0.69889963   5.50310858
H    0.56964323   0.85118123   5.29746879
C   -0.57926185  -0.80897000   4.56333979
N   -1.57519014  -1.33759553   4.35507690
C   -2.88164325   1.75555157   3.32226248
H   -2.64341586   1.02486149   2.57778958
H   -3.61337354   2.43356892   2.93527107
H   -3.27229889   1.26636446   4.19000854
C   -1.60911362   2.53542606   3.70182027
N   -0.66165747   3.11607808   3.98441830
C   -0.95425938  -2.29375192  -3.84687719
H   -1.06560338  -2.89034784  -4.72811270
H   -1.53548432  -1.40074527  -3.94493732
H   -1.29225639  -2.84767592  -2.99609795
C    0.52898784  -1.92312467  -3.66190933
N    1.63333282  -1.64717583  -3.52419235
C    3.36544833  -1.08907709  -0.52464077
H    4.21905211  -1.69571632  -0.74429870
H    3.46027827  -0.14645546  -1.02200465
H    2.47944378  -1.58382808  -0.86392896
C    3.27559684  -0.86056861   0.99565874
N    3.20869831  -0.69043365   2.12759082
C   -3.22158436  -1.65342898   1.23003178
H   -2.23284552  -1.44571469   1.58238170
H   -3.49905843  -2.64770230   1.51168368
H   -3.90811633  -0.95562524   1.66205365
C   -3.25718118  -1.52568747  -0.30424817
N   -3.28368463  -1.43057812  -1.44658934
