72
Energy:   -317.23946196
C    0.30947344   0.36629923   1.22929555
H    0.46556377  -0.57335842   1.71671680
H   -0.61860821   0.78736794   1.55527819
H    1.10950240   1.03290902   1.47523080
C    0.26912013   0.15325949  -0.29536365
N    0.23907525  -0.00535827  -1.43054173
C    2.38484046   2.71402550   3.72205503
H    2.78273517   3.42942824   4.41109704
H    2.74798480   2.92621467   2.73818459
H    2.69234107   1.73085753   4.01140467
C    0.84693938   2.79401361   3.72994039
N   -0.29809787   2.85356839   3.73581141
C    2.07343196  -2.38312790  -3.37400601
H    2.92391450  -2.89624227  -2.97614513
H    1.68027189  -2.93376523  -4.20293470
H    1.32320270  -2.29524348  -2.61615941
C    2.49499953  -0.97860600  -3.84432401
N    2.80887576   0.06712439  -4.19449715
C    1.67875862   3.07832138  -2.63577645
H    0.89001260   3.71319982  -2.98176672
H    1.46574793   2.06520582  -2.90618798
H    2.60229598   3.38041696  -3.08378995
C    1.79133622   3.18790848  -1.10381139
N    1.87515535   3.26950106   0.03680623
C   -0.98387123  -3.39051652  -1.00340460
H   -1.00858552  -2.49287899  -1.58524329
H   -1.80969678  -4.01438118  -1.27488964
H   -0.06756950  -3.91087259  -1.18919964
C   -1.07851934  -3.03562040   0.49215231
N   -1.14898917  -2.77138411   1.60566241
C    2.40017105  -2.80083686   2.66686520
H    1.39496877  -2.90307957   3.01902282
H    2.82581659  -1.90102476   3.05937398
H    2.97890058  -3.64027919   2.99137683
C    2.40136161  -2.74057102   1.12804532
N    2.40224803  -2.69570036  -0.01767602
C   -3.47315618   0.07371580  -2.18465486
H   -4.02039773   0.81006416  -1.63400255
H   -3.68225640   0.18068325  -3.22855818
H   -2.42516814   0.20761484  -2.01527006
C   -3.89290953  -1.33274557  -1.71852877
N   -4.20543498  -2.37991999  -1.37147671
C   -1.60392468  -0.40571063   4.43327409
H   -1.84433158   0.47952943   3.88240683
H   -2.09534281  -0.37904403   5.38337736
H   -1.93063637  -1.26563537   3.88675053
C   -0.08042040  -0.48052588   4.64525847
N    1.05389779  -0.53622923   4.80309047
C   -4.53978034  -1.91055262   2.04823846
H   -3.81766245  -2.65018464   2.32462664
H   -5.13800197  -2.28002408   1.24168976
H   -5.16720805  -1.69357270   2.88737687
C   -3.81507014  -0.62655930   1.60354050
N   -3.27549046   0.32943209   1.27244264
C   -0.68595010   0.81473437  -4.72097090
H   -1.42826923   1.21974325  -5.37658533
H    0.28297071   0.94376265  -5.15622170
H   -0.72504176   1.32336052  -3.78040172
C   -0.95582484  -0.68592406  -4.50465652
N   -1.15675885  -1.80323247  -4.34360064
C    4.05403253   0.33503078  -0.91738513
H    3.08492213   0.47147782  -1.34994428
H    4.45728163  -0.60389355  -1.23473408
H    4.70072817   1.12636594  -1.23435911
C    3.93769131   0.35106715   0.61813027
N    3.85106998   0.36300696   1.76139129
C   -1.71768142   3.58527217   0.74174424
H   -2.30025150   4.46704346   0.90905138
H   -0.71288848   3.75433569   1.06840578
H   -2.13903086   2.76976571   1.29157417
C   -1.71893850   3.24657467  -0.76054815
N   -1.71987446   2.99439898  -1.87907312
