72
Energy:   -319.11576091
C    2.46714888   3.20574722  -0.93019902
H    1.59595854   3.40475606  -0.34170684
H    2.98036756   4.12329594  -1.12922169
H    3.11522742   2.54335129  -0.39529255
C    2.04961111   2.55209282  -2.26061179
N    1.73873527   2.06541740  -3.25116457
C   -1.58972711  -1.11839693   4.12196316
H   -1.75279968  -1.77434197   4.95144711
H   -1.29157891  -1.69033486   3.26821042
H   -2.49449908  -0.59193510   3.90032221
C   -0.48193775  -0.10887301   4.47589001
N    0.34286178   0.64276343   4.73940463
C    2.88164584  -1.21948045  -2.49695052
H    3.06197259  -0.46763351  -3.23661844
H    1.85880273  -1.52981056  -2.54580025
H    3.51841439  -2.05970881  -2.67981986
C    3.17776940  -0.64563287  -1.09887692
N    3.39824684  -0.21837726  -0.05794758
C   -0.31974659  -0.61683205  -4.81615418
H    0.17723137  -0.68793034  -5.76106588
H    0.28655277  -0.05639869  -4.13555545
H   -1.26083102  -0.12404999  -4.94431436
C   -0.55318352  -2.03034903  -4.25128524
N   -0.72698793  -3.08277668  -3.83071463
C    0.16115148   0.62918525   1.07067800
H    0.39682848   1.67274514   1.05225824
H    0.98633378   0.08433804   1.47947473
H   -0.70643640   0.47010804   1.67638817
C   -0.11701541   0.14036319  -0.36294545
N   -0.32412330  -0.22358705  -1.43034327
C   -0.66060467  -3.47642330  -0.32480342
H   -1.07288234  -2.83432017  -1.07489067
H   -0.74198001  -3.00497875   0.63228444
H   -1.19738729  -4.40196678  -0.31328043
C    0.82245498  -3.74700929  -0.63931463
N    1.92666029  -3.94847287  -0.87348253
C    3.50076805   0.66765447   3.35063927
H    2.67940972   0.00170851   3.51430555
H    4.00997810   0.84004761   4.27577970
H    4.17832607   0.23196169   2.64637651
C    2.97485025   2.00507587   2.79718245
N    2.58328055   3.00084690   2.38510869
C   -0.61968713   3.83963165   3.13290818
H   -0.23130017   3.95791992   2.14292654
H    0.14565526   3.45198041   3.77234281
H   -0.94716214   4.78855713   3.50331289
C   -1.80887781   2.86156791   3.10432788
N   -2.69428434   2.13335500   3.08304855
C    3.80196647  -3.11368751   1.91341580
H    4.33872776  -2.26538111   1.54305955
H    3.77275793  -3.87367361   1.16077573
H    4.29275629  -3.49357884   2.78502754
C    2.36509694  -2.69404244   2.27522232
N    1.29528226  -2.38159761   2.54460373
C   -3.86198541  -2.67724183  -2.31387426
H   -4.89141907  -2.96058296  -2.38376215
H   -3.54219650  -2.74351881  -1.29493289
H   -3.26974174  -3.33331691  -2.91695968
C   -3.69301529  -1.22979283  -2.81181051
N   -3.56720936  -0.15210127  -3.18254669
C   -1.68005356   2.67581297  -3.02077123
H   -1.13195585   3.29112139  -3.70332865
H   -2.72747325   2.76934600  -3.21841399
H   -1.38363540   1.65507705  -3.14378968
C   -1.38802323   3.12470865  -1.57688379
N   -1.17059337   3.45893188  -0.50184395
C   -4.02292507   1.18324707   0.18309993
H   -3.30642082   1.94598921   0.40613865
H   -4.92764768   1.37546376   0.72108583
H   -4.22623701   1.18107439  -0.86740406
C   -3.45941311  -0.18805518   0.59973455
N   -3.03985285  -1.20905204   0.90993796
