72
Energy:   -317.84622919
C    0.27618218   0.76142062   0.96204457
H   -0.61450278   1.26055022   1.28212288
H    1.12187035   1.39272631   1.13857710
H    0.39091229  -0.15014449   1.51048340
C    0.17581816   0.44641059  -0.54204843
N    0.10109258   0.21187131  -1.66191404
C    2.76625823   0.90170308   4.03284627
H    2.88287711   1.32239418   5.00973891
H    2.38788557   1.64802249   3.36595756
H    3.71429696   0.55441712   3.67856656
C    1.77851916  -0.27808960   4.09657042
N    1.04310252  -1.15649887   4.14401595
C    1.07496459  -1.93866355  -4.33731268
H    1.91525904  -2.57884320  -4.16709095
H    0.50220101  -2.31305869  -5.15991176
H    0.46339462  -1.91192052  -3.45972162
C    1.57012462  -0.51692171  -4.66145263
N    1.93879377   0.54162971  -4.90278955
C    1.38992839   3.34702541  -3.09693104
H    2.23748180   3.34174070  -3.75002022
H    0.81229425   4.23105317  -3.26936306
H    0.78694234   2.48403586  -3.28812714
C    1.86929646   3.32435209  -1.63361556
N    2.22620777   3.30747078  -0.54411068
C   -1.50802597  -3.27151496  -1.17090290
H   -2.40588407  -3.34426933  -1.74836097
H   -1.20050402  -4.24963113  -0.86493214
H   -0.73769125  -2.82469860  -1.76406279
C   -1.76708983  -2.40212696   0.07354494
N   -1.95997465  -1.75482807   1.00009292
C    1.87534911  -3.03084790   1.38647387
H    1.86903533  -4.06362150   1.66618626
H    0.96520625  -2.56881279   1.70750753
H    2.70652905  -2.54107059   1.84924506
C    1.99808403  -2.91432414  -0.14419864
N    2.08946576  -2.82756691  -1.28385391
C   -3.64931997   0.64140180  -0.94298240
H   -2.75482489   0.10627001  -1.18466960
H   -3.82069776   1.40000012  -1.67786833
H   -4.47756526  -0.03589559  -0.92967526
C   -3.49801397   1.29458014   0.44340303
N   -3.38535978   1.78090110   1.47562999
C   -2.12497858   0.41900080   4.21755208
H   -1.82567134  -0.21994739   5.02195282
H   -2.14068782  -0.13973200   3.30515416
H   -3.10238674   0.80704186   4.41502745
C   -1.12640883   1.58427917   4.08877013
N   -0.38292826   2.45188188   3.99288612
C   -1.38716544  -3.60055101   4.00036212
H   -1.68059008  -2.62936418   3.66036462
H   -0.52579264  -3.51315334   4.62908912
H   -2.18940024  -4.04212470   4.55383398
C   -1.04996721  -4.48858695   2.78821958
N   -0.79890781  -5.14977007   1.88572437
C   -1.74852014   1.26929410  -4.36525789
H   -0.87685073   1.29300093  -4.98536321
H   -1.54623394   1.77819327  -3.44601852
H   -2.55855067   1.75304220  -4.86997307
C   -2.12837565  -0.19349866  -4.06937423
N   -2.41119534  -1.28261436  -3.84907539
C    3.80365989   0.25718358  -1.74254098
H    2.84235020   0.50863436  -2.13947469
H    4.14561589  -0.65426796  -2.18663699
H    4.49653674   1.04257405  -1.96159027
C    3.69784134   0.07671584  -0.21681695
N    3.61905461  -0.05765060   0.91915394
C   -0.88679997   4.34686774   1.10024808
H   -1.56679315   3.94524942   1.82219833
H   -0.91763488   5.41578360   1.13722366
H    0.10522750   4.01088601   1.31910160
C   -1.29151758   3.87001982  -0.30702578
N   -1.59284824   3.51498487  -1.35480514
