72
Energy:   -316.84247891
C    1.27899146  -1.68690949   3.25510579
H    1.91033272  -1.45960353   4.08855668
H    0.35881590  -2.10368728   3.60791210
H    1.07735582  -0.79117150   2.70565551
C    1.98490278  -2.70340662   2.33857821
N    2.51048585  -3.46023493   1.65618177
C    2.47882329   4.47360588  -0.03507605
H    3.30130691   4.90215705  -0.56870961
H    2.73886961   3.48759287   0.28904328
H    2.25099966   5.08041673   0.81626177
C    1.24868293   4.40258008  -0.95882387
N    0.33278752   4.34969815  -1.64659612
C   -3.29641569  -1.21146574  -0.49471274
H   -4.33975532  -1.07249755  -0.30227979
H   -2.74389053  -1.06106010   0.40916402
H   -3.12924700  -2.20548411  -0.85371300
C   -2.83060689  -0.19730253  -1.55588904
N   -2.48379106   0.55778808  -2.34598303
C    1.22267756   2.61803483   4.09632413
H    0.68525751   2.64001863   5.02130877
H    2.21032220   3.00053621   4.24847483
H    1.28121895   1.61020672   3.74170534
C    0.49043353   3.48639920   3.05643855
N   -0.05475542   4.13293594   2.28219646
C    0.70828301   1.26387585  -3.51324846
H    0.97746625   1.14130230  -4.54155595
H    0.05597286   2.10613211  -3.41327366
H    0.20877175   0.38291044  -3.16786817
C    1.97862440   1.49600280  -2.67423129
N    2.92445132   1.66883186  -2.04954487
C   -1.34533320  -1.66810690  -4.92332389
H   -0.32731177  -1.55880704  -5.23410694
H   -1.73650262  -0.71308151  -4.64081357
H   -1.92397743  -2.06588880  -5.73068967
C   -1.41471647  -2.62743276  -3.72062698
N   -1.46637546  -3.34169447  -2.82516447
C   -0.66829490  -4.47661874   0.36863363
H   -0.35138773  -3.82040424  -0.41485380
H   -1.33007862  -5.21617288  -0.03136771
H    0.18556593  -4.95720454   0.79858487
C   -1.40085309  -3.66498621   1.45316631
N   -1.94627596  -3.06068890   2.26065019
C   -2.76290870   3.93982398  -0.29483263
H   -2.42497305   3.64048889  -1.26493477
H   -1.93548661   4.31327749   0.27156321
H   -3.50159133   4.70734984  -0.39558540
C   -3.37700302   2.72848322   0.43121265
N   -3.83422414   1.82658496   0.97178635
C    4.04537947  -0.73316400  -0.09639304
H    4.36834484  -1.63539601   0.37960166
H    4.86817943  -0.29098198  -0.61828803
H    3.26174075  -0.95654871  -0.78986886
C    3.52418695   0.25047284   0.96775776
N    3.13613542   0.98283517   1.76006641
C   -0.10663743   1.34506109   0.27837274
H   -0.51910539   1.82193418  -0.58612851
H    0.79432891   1.84548949   0.56600127
H   -0.81205183   1.39079431   1.08161497
C    0.20556005  -0.12734675  -0.04743072
N    0.43800527  -1.22362131  -0.29000620
C    2.16225809  -3.71446631  -1.99653046
H    3.09788468  -4.22534042  -2.08878395
H    1.36100231  -4.40916889  -2.13892631
H    2.08806502  -3.27933582  -1.02182233
C    2.07564698  -2.60559773  -3.06166378
N    2.01116106  -1.77999467  -3.85470395
C   -3.79162112  -0.42364012   3.48068869
H   -4.03558956  -0.89405057   4.41025503
H   -3.89191453  -1.13222454   2.68523382
H   -4.45545991   0.39838643   3.31190035
C   -2.34070724   0.09012832   3.53059754
N   -1.26043590   0.47265228   3.56775695
