72
Energy:   -318.25706448
C    2.45323226   2.26802991  -3.21799440
H    3.31086069   2.44420267  -3.83308530
H    1.59831135   2.74117043  -3.65405331
H    2.27850915   1.21507764  -3.14274517
C    2.70080656   2.84896933  -1.81342459
N    2.88513688   3.28150514  -0.76765852
C   -2.10638203  -0.49852269  -2.90038074
H   -2.38842590   0.33762631  -3.50553054
H   -2.31849273  -0.28357467  -1.87387916
H   -2.65927154  -1.36228934  -3.20553555
C   -0.59941857  -0.76813887  -3.06761779
N    0.52258423  -0.96888038  -3.19213338
C   -4.44338288   0.39058330   2.02193820
H   -5.38250462   0.35253554   2.53331174
H   -4.01225683   1.36277393   2.13972954
H   -3.78337701  -0.34446043   2.43303681
C   -4.66216428   0.10402885   0.52473372
N   -4.82505698  -0.10932396  -0.59000307
C    1.18796646   0.26875873   0.08878268
H    1.55100990  -0.68387824   0.41371719
H    1.72713689   1.04561863   0.58946524
H    1.32721012   0.36196892  -0.96801539
C   -0.31095652   0.38759354   0.42151108
N   -1.42697281   0.47607146   0.66924250
C    4.57095854   1.43328653   1.61515160
H    4.79355273   1.65348102   0.59198671
H    5.41404287   1.68229930   2.22515205
H    3.72319287   2.00675381   1.92712552
C    4.25732641  -0.06738804   1.76079057
N    4.02381303  -1.18470847   1.86922541
C   -3.30496160   2.96970371  -1.22737487
H   -3.36492081   2.64092638  -0.21090523
H   -3.95719644   2.37611424  -1.83329595
H   -3.59844628   3.99688584  -1.28789517
C   -1.85753346   2.81884772  -1.73115482
N   -0.77985741   2.70652858  -2.10624189
C    0.61908403  -4.50301062  -3.44429086
H    1.02458584  -4.66651600  -2.46769757
H    1.09761194  -3.65724536  -3.89216502
H    0.78631167  -5.36937378  -4.04955847
C   -0.89394341  -4.23803903  -3.33411808
N   -2.02046111  -4.04075565  -3.25208943
C   -1.23032712   1.30431939   4.29263465
H   -1.30384773   0.59841051   5.09337654
H   -1.89050279   1.01618085   3.50140564
H   -1.50228097   2.27628356   4.64791741
C    0.21705990   1.33610280   3.76760072
N    1.29470533   1.35976700   3.37668908
C   -2.60179103  -2.91232215   0.06294342
H   -3.04350467  -2.67234830  -0.88162092
H   -2.83648304  -2.14566428   0.77150144
H   -2.98731956  -3.84837741   0.40945085
C   -1.07339693  -3.01389967  -0.09609585
N    0.06456194  -3.08952875  -0.21450781
C    0.29837811   4.11711989   1.12878258
H    0.93684360   3.30951695   1.42039788
H    0.67157619   5.03254457   1.53819673
H    0.27622075   4.18669184   0.06127713
C   -1.12577368   3.86180515   1.65623501
N   -2.18611943   3.67171173   2.04894732
C    3.30054528  -2.50835071  -1.39126221
H    2.29445586  -2.48873943  -1.75499241
H    3.29840008  -2.75126229  -0.34920249
H    3.85963473  -3.24587858  -1.92826382
C    3.94697973  -1.12547395  -1.59466910
N    4.42827956  -0.09585935  -1.74611478
C    1.14169292  -2.34779335   3.12500531
H    1.40831365  -2.59603533   2.11892902
H    1.41300231  -3.15328594   3.77498377
H    1.65922261  -1.45973952   3.42236451
C   -0.37738290  -2.10933654   3.20954517
N   -1.50840390  -1.93179460   3.27248894
