72
Energy:   -318.78280761
C   -3.78300186  -2.67291204   1.65953366
H   -4.56167683  -2.63793859   0.92649728
H   -3.62377663  -1.69263561   2.05778550
H   -4.06614420  -3.33706249   2.44923847
C   -2.48394168  -3.17823367   1.00478738
N   -1.51673233  -3.55446859   0.51729900
C    1.34559458   1.83143648  -3.16799060
H    0.93571969   1.94929010  -4.14932299
H    1.36016223   0.79313794  -2.90987624
H    2.34330694   2.21760338  -3.14943617
C    0.47858001   2.60039879  -2.15379994
N   -0.16695175   3.17292619  -1.39868890
C   -1.97196753   5.24424297   0.69820233
H   -1.58510634   5.24771786  -0.29940808
H   -1.18230405   5.45848070   1.38771873
H   -2.73515335   5.98888519   0.78739016
C   -2.56686755   3.85916896   1.01326413
N   -3.00979765   2.82791840   1.24784196
C   -1.68036887  -2.49446171  -2.85733242
H   -0.98548258  -2.72866919  -2.07811483
H   -1.49010789  -3.11956054  -3.70465250
H   -2.67779573  -2.66134968  -2.50777961
C   -1.51876994  -1.01750642  -3.26241124
N   -1.39845218   0.08215393  -3.56401084
C    1.37273692  -4.63430170  -0.86326985
H    0.95121289  -5.20282085  -0.06077147
H    1.48954391  -5.26182307  -1.72203183
H    0.72235763  -3.81916578  -1.10297656
C    2.74736409  -4.08608284  -0.43729308
N    3.77083651  -3.67790898  -0.12013402
C   -1.01204440   0.21632215   0.45531272
H   -0.74598110   0.50706649   1.45008818
H   -1.83986227  -0.46069065   0.49095438
H   -1.28464423   1.08364145  -0.10890858
C    0.18880436  -0.47603267  -0.21566199
N    1.08289085  -0.99152230  -0.71523315
C   -1.39397634   1.73419094   4.31843164
H   -0.56915569   1.05955226   4.41555908
H   -2.04048483   1.39672535   3.53546112
H   -1.93718836   1.76836874   5.23965457
C   -0.86879239   3.14167650   3.97966003
N   -0.47776906   4.18961347   3.72742917
C    3.52755680  -1.53825837  -3.12126697
H    4.16948569  -2.11289561  -2.48674391
H    3.16163853  -0.68881810  -2.58325755
H    4.07601705  -1.20821101  -3.97868121
C    2.34093295  -2.40879233  -3.57480249
N    1.45743755  -3.05694443  -3.91248029
C   -3.83686884   1.86490610  -1.91810042
H   -4.15421875   1.92598346  -2.93812923
H   -2.80282050   2.13130290  -1.84972019
H   -4.41853072   2.53729430  -1.32273275
C   -4.03122090   0.42584915  -1.40532134
N   -4.17592484  -0.64559415  -1.02353400
C    1.84078597   3.50364698   1.32903125
H    0.84678156   3.84129561   1.12203168
H    2.39232136   3.43643774   0.41459660
H    2.32318024   4.19650822   1.98640341
C    1.78332335   2.11721170   1.99693489
N    1.74053982   1.08494762   2.49421950
C    4.26403687  -0.48519530   0.80038940
H    5.07858197  -1.09442340   0.46833883
H    3.37493496  -1.07789251   0.85612891
H    4.48808789  -0.08643146   1.76769888
C    4.04887659   0.67075891  -0.19413357
N    3.88867997   1.53141936  -0.93460112
C    1.29910068  -2.42726551   2.69148664
H    1.23766948  -2.61915463   1.64062749
H    1.56010930  -3.32946513   3.20413607
H    2.04628129  -1.68371286   2.87519753
C   -0.06352557  -1.92275469   3.20170085
N   -1.07806275  -1.54712344   3.58157852
