72
Energy:   -317.19240048
C   -2.81257615  -3.15864971   0.49930282
H   -2.48816515  -2.92054155   1.49074731
H   -3.45937654  -4.01045348   0.53058693
H   -3.34093545  -2.32456586   0.08694414
C   -1.58813186  -3.47584461  -0.37917516
N   -0.67647742  -3.71201062  -1.03324195
C   -0.15713507  -0.20081156  -0.47438330
H   -1.18586987  -0.43812743  -0.30035438
H    0.41375096  -1.10438509  -0.52481256
H   -0.06516773   0.33121164  -1.39817571
C    0.36946165   0.67550217   0.67729815
N    0.76153684   1.32795758   1.53477733
C    1.49091222  -2.13727747  -3.19628995
H    0.42272981  -2.19745671  -3.21256845
H    1.85660569  -2.53638253  -2.27331513
H    1.89237158  -2.70077804  -4.01249861
C    1.92417055  -0.66522920  -3.32652478
N    2.24675107   0.43077765  -3.42349052
C   -1.65896853   3.72472480   1.36792507
H   -2.40605567   4.41830329   1.69305559
H   -0.73858146   4.24421013   1.20082710
H   -1.51511326   2.97703014   2.11969462
C   -2.11543573   3.05493988   0.05848785
N   -2.45529631   2.55625456  -0.91644769
C    3.87439516   1.59014241  -0.43340590
H    4.87914065   1.77504182  -0.11528816
H    3.19944195   2.16780135   0.16295591
H    3.76898423   1.86761307  -1.46141254
C    3.55145317   0.09327544  -0.27001144
N    3.31100818  -1.02121005  -0.14835684
C   -4.05197385  -0.11871758  -1.95964511
H   -4.51149890   0.78526392  -2.30104569
H   -3.78413532  -0.01545039  -0.92886991
H   -4.73883633  -0.93170569  -2.06995996
C   -2.78751779  -0.39830811  -2.79305977
N   -1.84607278  -0.60647596  -3.41357487
C   -0.02915892   2.85303271  -3.32273785
H    0.71457854   2.71448725  -4.07941475
H   -0.74185771   3.58004120  -3.65200702
H   -0.52684334   1.92411579  -3.13747408
C    0.64246332   3.34303270  -2.02642632
N    1.14251661   3.70785996  -1.06126347
C    2.05493977  -3.74131351   1.18884426
H    1.98212023  -4.77223364   1.46597454
H    3.01871967  -3.36563592   1.46251144
H    1.92206998  -3.64599709   0.13141365
C    0.96385409  -2.93543705   1.91801856
N    0.15149121  -2.33542538   2.46092198
C    2.49533665   0.12268232   4.06583763
H    1.78223914   0.76390161   4.54042160
H    2.94027583  -0.51907005   4.79733070
H    2.00327808  -0.47014634   3.32332054
C    3.58948265   0.97668118   3.39865665
N    4.40412409   1.61252216   2.90191008
C    2.22235051   4.32375973   2.46014393
H    2.04665046   5.36859816   2.31067042
H    2.03015728   3.79590369   1.54946899
H    3.24027837   4.17151989   2.75262472
C    1.28678499   3.79880218   3.56501348
N    0.59021393   3.40794742   4.38763908
C   -2.06282562  -4.01152685  -4.30951216
H   -1.78854376  -3.08542418  -4.76995053
H   -2.33107647  -4.71990352  -5.06525224
H   -1.23538277  -4.38812865  -3.74523519
C   -3.26240706  -3.78286406  -3.37125970
N   -4.15554997  -3.61261421  -2.67268809
C   -1.49506284   0.32457178   4.01830058
H   -0.73840187   1.06289205   3.85323229
H   -1.03498341  -0.60524919   4.28032915
H   -2.13579061   0.64226017   4.81419071
C   -2.32409189   0.14295551   2.73326114
N   -2.94134171   0.00773394   1.77649087
