72
Energy:   -319.04171808
C   -0.15168767   0.98205029   0.02800132
H    0.29201300   1.48398208  -0.80632139
H    0.21481258   1.40986244   0.93770095
H   -1.21524352   1.09135482  -0.01443177
C    0.21295469  -0.51340543  -0.01941326
N    0.48444750  -1.62684018  -0.05471557
C   -0.25723852  -2.32702686   3.30200988
H   -0.80346736  -2.42145096   2.38679497
H   -0.90840945  -2.52379468   4.12793841
H    0.55033846  -3.02892678   3.30942733
C    0.30381589  -0.89771445   3.41984013
N    0.72154640   0.16647361   3.50757012
C   -0.61761535  -3.66528255  -2.79450139
H   -0.89602598  -3.21303069  -3.72340179
H   -1.00690925  -3.08477028  -1.98434408
H   -1.01675380  -4.65690426  -2.74681515
C    0.91784377  -3.72449698  -2.69223245
N    2.06106288  -3.76858482  -2.61608857
C   -1.24935829   3.02559836   3.39477850
H   -0.24432373   2.71544565   3.59127535
H   -1.68669229   3.40815065   4.29327269
H   -1.24682174   3.78982606   2.64588019
C   -2.07007490   1.82147835   2.89666281
N   -2.68113572   0.92495627   2.52579303
C    1.16842247  -5.01945964   0.75242653
H    1.47354303  -4.86490151   1.76628718
H    1.66895727  -4.31776223   0.11840385
H    1.42071075  -6.01489593   0.45183325
C   -0.35422821  -4.81914308   0.63837321
N   -1.48791086  -4.66999828   0.55345534
C    3.57563268   1.37651515   2.43022420
H    3.50758207   0.39873709   2.85943204
H    2.81506444   2.00290144   2.84744749
H    4.53772516   1.79344377   2.64340878
C    3.38353005   1.28219091   0.90516699
N    3.24050091   1.21196223  -0.23030743
C   -4.63417118   3.32215082   0.52754917
H   -5.00332332   4.17648527   1.05550705
H   -4.66891433   2.46512470   1.16723522
H   -5.24076605   3.14721696  -0.33636049
C   -3.17981812   3.57779926   0.09039809
N   -2.09698616   3.76814113  -0.23508076
C    3.94729783  -2.15857565  -0.22889794
H    4.24954268  -3.09991347  -0.63808169
H    4.76719029  -1.47226129  -0.26949400
H    3.12800428  -1.76946176  -0.79656647
C    3.51142842  -2.35156597   1.23546970
N    3.18690383  -2.49525604   2.32575797
C   -2.27435808   2.07472592  -3.31360361
H   -1.57691471   2.75039915  -2.86422781
H   -3.22749379   2.17769623  -2.83838941
H   -2.36894040   2.30032217  -4.35526556
C   -1.77022352   0.62936876  -3.14510723
N   -1.39487242  -0.44676534  -3.01965401
C    2.24341306  -0.24551306  -3.22407320
H    1.57607494  -0.84217971  -2.63794274
H    3.18369223  -0.16257027  -2.72019359
H    2.38962552  -0.70687180  -4.17836306
C    1.64014425   1.15787946  -3.41940922
N    1.19098320   2.20276899  -3.56484577
C   -3.17358067  -1.71868312   0.20191348
H   -2.83483944  -1.45595764   1.18228580
H   -2.34182628  -2.04328213  -0.38776373
H   -3.89100340  -2.50939913   0.27242523
C   -3.82566810  -0.49158935  -0.46188080
N   -4.31117683   0.42203774  -0.95610582
C    1.34396590   4.41253834  -1.04127944
H    0.40145779   4.07646026  -1.42026515
H    2.13220540   3.84813676  -1.49408012
H    1.47105798   5.44997615  -1.27034159
C    1.38307988   4.21542060   0.48555214
N    1.41220201   4.06865748   1.62234766
