72
Energy:   -317.47884010
C   -1.35928073   3.38694840   2.75907764
H   -2.22108669   2.99145399   3.25483448
H   -1.24679608   4.42106163   3.00978886
H   -0.48942804   2.84762821   3.07114996
C   -1.53275610   3.24403232   1.23556811
N   -1.66191640   3.13762481   0.10124602
C   -1.97033198  -2.97153645  -0.96391974
H   -2.30977243  -3.84904718  -1.47348356
H   -0.93906092  -2.80222624  -1.19351316
H   -2.54913973  -2.12903632  -1.28026483
C   -2.13300072  -3.16482785   0.55521729
N   -2.25411499  -3.30874209   1.68628386
C    1.24833093  -4.68409634  -2.61861224
H    0.37476294  -4.13391034  -2.89981416
H    1.19770571  -4.92603482  -1.57755414
H    1.30190617  -5.58581117  -3.19214440
C    2.50137220  -3.82994552  -2.88677998
N    3.43431839  -3.19399141  -3.08644306
C   -3.41657386  -0.18723975   2.96170131
H   -3.35520619  -1.21416807   3.25589925
H   -4.29435444   0.25352091   3.38611902
H   -2.55065441   0.33593787   3.31008008
C   -3.48782641  -0.09658103   1.42602424
N   -3.54087718  -0.02908149   0.28264286
C    0.06209158   0.13279061  -0.26479753
H    0.72647148  -0.63356669  -0.60567292
H    0.39488725   1.08181042  -0.63018435
H   -0.92496315  -0.06320313  -0.62840241
C    0.04752512   0.15197763   1.27501404
N    0.03667973   0.16626324   2.42147375
C    2.17873199   0.03910008  -3.84545352
H    3.04197419  -0.57088539  -3.67922832
H    2.20038945   0.87673007  -3.18001678
H    2.17750202   0.38729239  -4.85721421
C    0.90690596  -0.78967597  -3.58624548
N   -0.04002633  -1.40673740  -3.39325332
C    3.29749926   1.20613512   3.04068013
H    3.99345030   1.70800437   3.67996064
H    2.30180175   1.37801144   3.39273707
H    3.39329909   1.58275623   2.04374582
C    3.59103049  -0.30561041   3.04873543
N    3.80957783  -1.43117367   3.05473296
C    4.62777576  -1.88196680  -0.26486087
H    5.24027769  -1.83690047   0.61133009
H    5.24215303  -2.07146917  -1.12015527
H    3.91114408  -2.66944524  -0.15895598
C    3.89339945  -0.54070422  -0.44736049
N    3.34662291   0.45792675  -0.58323975
C    0.98273173  -3.20322631   3.10366656
H    1.81783997  -3.70025239   3.55139358
H    0.08529206  -3.74078735   3.32845370
H    0.90952460  -2.20878467   3.49177173
C    1.17780628  -3.14544675   1.57716486
N    1.32304815  -3.10242723   0.44061496
C    1.80044275   3.71585113  -1.13957390
H    2.50810976   4.42154283  -1.52181311
H    0.82295394   3.96020863  -1.49971849
H    2.06545812   2.73213943  -1.46664766
C    1.80736044   3.76430005   0.39964825
N    1.81251098   3.80037247   1.54566911
C   -5.16845883   3.08454350  -0.29541212
H   -5.21454554   2.09510548  -0.70012015
H   -4.33772942   3.60631456  -0.72266228
H   -6.07384190   3.60642687  -0.52523453
C   -4.99468264   3.00651228   1.23276096
N   -4.86529836   2.94841449   2.37055528
C   -2.56344998   1.25183885  -2.79736769
H   -2.43827409   0.18928214  -2.78306974
H   -3.32439852   1.51186197  -3.50323198
H   -2.84959764   1.59039913  -1.82351167
C   -1.23657156   1.91961475  -3.20365453
N   -0.24865027   2.41680427  -3.50615355
