72
Energy:   -320.48789079
C    0.27776709   0.40847743   1.20552309
H    0.55836480   1.39112620   1.52264530
H    0.93969528  -0.30985742   1.64226696
H   -0.72522454   0.20561113   1.51817650
C    0.36479268   0.32003862  -0.32947043
N    0.42958718   0.25419191  -1.47234289
C    2.06554369   2.23463914   4.15891012
H    2.47148500   2.77971283   4.98535219
H    2.46616546   2.62143368   3.24524099
H    2.32406630   1.20053767   4.25218024
C    0.53261372   2.38177882   4.15021259
N   -0.60872231   2.49133100   4.14373688
C    2.36543616  -1.78803797  -3.62665631
H    3.24934233  -2.30391761  -3.31444123
H    1.97866875  -2.24703960  -4.51244837
H    1.63102663  -1.83656236  -2.85000508
C    2.70692929  -0.31509622  -3.91893195
N    2.96118645   0.78157586  -4.13654445
C    1.63154913   3.58488143  -2.26728708
H    0.76524114   4.13285818  -2.57409669
H    1.57730588   2.58765534  -2.65134031
H    2.50979277   4.06532036  -2.64513047
C    1.69244053   3.53999166  -0.72914628
N    1.73777694   3.50656918   0.41606947
C   -0.74972750  -3.17028853  -1.52068152
H   -0.69230179  -2.23133078  -2.03054506
H   -1.59989852  -3.71610199  -1.87309604
H    0.13970756  -3.73407924  -1.71027163
C   -0.88888869  -2.92468480  -0.00677500
N   -0.99250051  -2.74182167   1.12039723
C    2.41036723  -2.88546664   2.35358801
H    3.05201828  -3.68809334   2.65187393
H    1.39870538  -3.12451161   2.60715635
H    2.70238506  -1.98870447   2.85900099
C    2.52261900  -2.67690491   0.83191079
N    2.60619555  -2.52162123  -0.30104706
C   -3.16133225  -0.11514346  -1.89293778
H   -4.04822359   0.27630912  -2.34580509
H   -3.05769074  -1.14932891  -2.14713848
H   -2.31010102   0.42668279  -2.24892766
C   -3.25917483   0.03008687  -0.36292635
N   -3.33202307   0.13821746   0.77623671
C   -2.09434150  -0.78015133   3.99625787
H   -2.31280389  -1.17509317   3.02610567
H   -2.33621139   0.26188486   4.01989325
H   -2.67483811  -1.29779701   4.73108148
C   -0.59632332  -0.96646098   4.30093840
N    0.51901931  -1.10517699   4.52778691
C   -4.45339041  -3.07123211   1.83406323
H   -3.54319539  -3.39217942   2.29605677
H   -5.26387707  -3.67510720   2.18526880
H   -4.63781710  -2.04703277   2.08286354
C   -4.33145915  -3.21426089   0.30557524
N   -4.24067577  -3.32075231  -0.83245354
C   -0.55928147   1.44412908  -4.62795859
H    0.40813721   1.68154795  -5.01864204
H   -0.64471597   1.82451850  -3.63151293
H   -1.31203301   1.88842491  -5.24510155
C   -0.74528021  -0.08450958  -4.61157875
N   -0.88376472  -1.22265055  -4.59938322
C    4.10625619   0.71571670  -0.79671984
H    3.18635710   1.00289460  -1.26170876
H    4.44283159  -0.21038359  -1.21379818
H    4.84339725   1.47237832  -0.96697070
C    3.88487377   0.54625994   0.71783430
N    3.72004449   0.42009168   1.84548869
C   -1.87945204   3.47738574   1.18079631
H   -0.91317934   3.75199878   1.54931350
H   -2.19885655   2.57357760   1.65620213
H   -2.57812792   4.25905258   1.39468426
C   -1.80488756   3.25794002  -0.34166345
N   -1.74937092   3.09455271  -1.47520395
