72
Energy:   -317.93621697
C   -1.58516331   3.85578353  -1.31857921
H   -0.91042304   3.21501546  -1.84682350
H   -1.11861993   4.80388952  -1.15025991
H   -2.47387059   3.99350409  -1.89834771
C   -1.94868515   3.21523087   0.03387935
N   -2.21934367   2.73831029   1.04084623
C    1.26938813   3.26332467   2.18613581
H    1.77615848   3.97665680   2.80196149
H    1.61798194   2.27903362   2.41970073
H    0.21625624   3.32085442   2.36642069
C    1.55402634   3.57050369   0.70417017
N    1.76595242   3.79921244  -0.39922060
C    0.83435574  -2.52760769  -2.37883213
H    0.32844699  -2.78178380  -1.47089435
H    0.66676148  -3.29352722  -3.10696572
H    0.45847370  -1.59625449  -2.74787550
C    2.34468848  -2.39988467  -2.10646868
N    3.46919986  -2.30478907  -1.90368172
C   -1.82273442  -0.69639570  -4.89327146
H   -1.11246968  -0.59268432  -5.68678776
H   -2.72763488  -1.11879581  -5.27750107
H   -1.42187870  -1.33910175  -4.13753161
C   -2.11953760   0.68729656  -4.28589711
N   -2.34052106   1.71751835  -3.83367930
C    1.72872297  -1.18797621   4.33093429
H    2.08305511  -1.06227981   3.32916120
H    2.37983668  -1.85308505   4.85874132
H    1.71157559  -0.23897652   4.82490256
C    0.30630939  -1.77747673   4.30214603
N   -0.75274217  -2.21638666   4.28071185
C    3.68485011   0.95803341  -1.30371461
H    4.60872227   0.50374123  -1.59522622
H    3.77059813   2.02181650  -1.38060347
H    2.90077802   0.61602507  -1.94649012
C    3.36022887   0.57305777   0.15162549
N    3.11853360   0.28642591   1.23519235
C   -3.90333471   0.24800208  -0.87883962
H   -3.61103039   1.09998653  -1.45640422
H   -3.72080783   0.44019489   0.15781121
H   -4.94543695   0.05648970  -1.02798731
C   -3.08688703  -0.97920012  -1.32492025
N   -2.47900462  -1.89290795  -1.65704755
C    4.08449245  -3.07684066   1.42801173
H    4.33501073  -2.13246353   1.86423714
H    4.53990897  -3.15601065   0.46301069
H    4.44117008  -3.86590333   2.05654993
C    2.55512218  -3.18643198   1.28442794
N    1.41643649  -3.26802769   1.17752329
C   -2.98581703   0.75433577   4.03805751
H   -3.27283612   0.97849127   3.03193896
H   -3.63260707   1.27000216   4.71676946
H   -3.06196451  -0.29993847   4.20420946
C   -1.53223189   1.20691292   4.27014408
N   -0.44997169   1.54387718   4.44294309
C   -0.39905193  -0.22154562   1.18891051
H    0.29565517   0.19579809   1.88755666
H   -0.31609237  -1.28829052   1.19740199
H   -1.39395880   0.06101946   1.46316660
C   -0.08638788   0.30642512  -0.22356537
N    0.14640471   0.69952334  -1.27521786
C   -2.00966514  -3.85664664   1.42295566
H   -2.57514254  -4.76453868   1.39350168
H   -1.28079606  -3.91561004   2.20409091
H   -1.51596178  -3.71335196   0.48454067
C   -2.95539250  -2.67133268   1.69171315
N   -3.65952951  -1.78881256   1.89181531
C    1.22520704   2.63264481  -3.89044414
H    1.36504560   2.67888047  -2.83062924
H    0.24696001   2.98920187  -4.13701845
H    1.95948722   3.24246253  -4.37402873
C    1.37507422   1.17524011  -4.36490319
N    1.48665714   0.09013607  -4.71815951
