65
Energy:  -1627.11343236
O   -0.94541018   0.62323639  -3.29731521
H   -1.71571157   0.10532529  -3.06357238
H   -0.50529854   0.78849989  -2.46351574
O   -2.05902098   3.01952758  -2.56871679
H   -1.26040185   3.45104258  -2.26501607
H   -1.75269556   2.21561051  -2.98837610
O    4.12385111  -0.76965418  -1.15851693
H    3.99495084  -0.75419033  -0.21016181
H    3.44418516  -1.36014206  -1.48349400
O   -3.29753067   1.48837758  -0.61816846
H   -2.57639343   0.96161039  -0.27362635
H   -2.87543228   2.12499658  -1.19504024
O    0.52324273   3.64827031  -1.79452597
H    0.40005881   2.77309488  -1.42693171
H    1.45623322   3.69142546  -2.00404502
O   -3.25274953  -0.57954616  -2.43704799
H   -2.99746175  -1.30115015  -1.86228919
H   -3.43509613   0.14797820  -1.84232967
O   -0.94491203   3.35771699   2.35221692
H   -0.38087252   2.65122705   2.03763270
H   -1.83269763   3.00809473   2.27584377
O   -0.07048290  -3.85743781  -0.99133072
H    0.59454186  -3.34212815  -1.44787191
H    0.16078113  -3.78151474  -0.06559616
O    0.45481071  -3.16032000   1.61841039
H   -0.45953220  -3.08897449   1.89248831
H    0.62858339  -2.34512374   1.14778318
O   -2.31804130  -2.34135780  -0.54708833
H   -1.55336690  -2.86057322  -0.79592614
H   -1.95385759  -1.51629840  -0.22634066
O   -2.27875857  -0.25103057   2.82859130
H   -1.99402850  -0.16277812   1.91899131
H   -1.48763063  -0.09393891   3.34402379
O    2.86325418   1.55175834  -1.82978693
H    3.35523667   0.76201851  -1.60507362
H    1.96851142   1.36636809  -1.54465941
O   -3.44230536   2.15601845   2.09022069
H   -3.47870763   2.00279112   1.14606599
H   -3.10978811   1.33540005   2.45388201
O    0.21942932   0.13852958   3.89210303
H    0.85025465  -0.58028747   3.85218697
H    0.37547121   0.63950058   3.09153396
O   -2.21062217  -2.90309828   2.13918863
H   -2.39590775  -2.79652371   1.20615971
H   -2.29404089  -2.02152860   2.50265534
O    2.03187780  -1.91345263   3.51086753
H    1.48991911  -2.45862173   2.94051389
H    2.60566394  -1.43578926   2.91183579
O    1.85951882  -2.10296357  -1.92602272
H    1.53011755  -1.66440672  -1.14155185
H    1.71767041  -1.47161621  -2.63136759
O    3.35033629  -0.59896559   1.45326475
H    3.38479039   0.35718702   1.48184681
H    2.49958428  -0.79685581   1.06173909
O    3.06016522   2.08818000   1.00375059
H    3.04393306   2.09425397   0.04670751
H    2.14717846   1.95463863   1.25841454
O    1.67441590  -0.10660346  -3.80264897
H    0.74791546   0.12963525  -3.75770409
H    2.11813449   0.56192018  -3.28070856
S    0.12722953   0.33900509   0.25550127
O    0.49224024   1.20996619   1.40801762
O    0.95527285  -0.89932224   0.28696019
O   -1.31474288  -0.02532025   0.34540476
O    0.37614789   1.07069666  -1.01837750
