65
Energy:  -1629.81584993
O   -0.53748047   2.27726187  -4.75081363
H   -1.02375966   2.49537727  -3.95570982
H    0.09382612   1.61410145  -4.47170416
O   -1.62364217   2.59897976  -2.20719396
H   -1.04285340   1.89284618  -1.92383620
H   -1.30369788   3.37324448  -1.74418031
O    4.00938918  -0.92998768  -1.57188992
H    3.95766851  -1.02622809  -0.62094586
H    3.25069774  -1.41036471  -1.90333683
O   -3.31570789   1.43644934  -0.36385264
H   -2.62226674   0.83721837  -0.08763993
H   -2.91918376   1.95647277  -1.06283482
O    0.05156794   3.88987621  -0.45562194
H   -0.17939464   3.83091043   0.47142238
H    0.33643660   3.00625818  -0.68864745
O   -4.67291138  -0.77363356  -1.37327318
H   -3.99345356  -1.41436772  -1.16344311
H   -4.32039348   0.06037943  -1.06281335
O   -0.59127918   3.30021046   2.13883715
H   -0.07578377   2.51149042   1.97026363
H   -1.48770574   2.98246396   2.24695022
O   -0.32915333  -3.78487460  -1.40756949
H   -0.02151850  -3.79290210  -0.50118756
H    0.30667555  -3.24057713  -1.87199790
O    0.43842327  -3.34467079   1.20754960
H   -0.43595062  -3.24190595   1.58323769
H    0.62653999  -2.49811350   0.80235249
O   -2.48842194  -2.29751126  -0.54055635
H   -1.80115555  -2.81370740  -0.96179062
H   -2.05041167  -1.49086730  -0.26907086
O   -2.03998280  -0.35264871   2.88521212
H   -1.20334317  -0.28252556   3.34493891
H   -1.81475653  -0.25218047   1.96032775
O    3.05002886   1.62299710  -1.58008898
H    3.41597447   0.73851803  -1.58361512
H    2.11715278   1.49605744  -1.40728744
O   -3.09038429   2.15777379   2.31057467
H   -3.26769542   1.99960625   1.38333380
H   -2.79261103   1.31202365   2.64564129
O    0.53678493  -0.17178676   3.78757310
H    1.09442257  -0.93864221   3.65640588
H    0.65778602   0.35130180   2.99512819
O   -2.11496950  -2.97997674   2.08135654
H   -2.39142231  -2.82441007   1.17824818
H   -2.14436505  -2.11652691   2.49345134
O    2.13576024  -2.33083063   3.13040633
H    1.54414955  -2.80998901   2.55020303
H    2.72491949  -1.86259799   2.53889858
O    1.59451218  -1.98392103  -2.34426791
H    1.38346996  -1.67235454  -1.46414329
H    1.39597749  -1.24197855  -2.91552721
O    3.45216307  -0.98337836   1.10563710
H    3.54654381  -0.04681686   1.27935146
H    2.57028154  -1.07277245   0.74435396
O    3.30677596   1.73471576   1.20061252
H    3.32720907   1.89181423   0.25661337
H    2.37924494   1.61362814   1.40372789
O    1.21164980   0.48969331  -3.53677407
H    0.78128022   0.68016156  -2.70326599
H    2.06503935   0.91800127  -3.46961447
S    0.20046619   0.25841293   0.17304713
O    0.67038029   1.02708546   1.35981724
O    0.99386962  -0.99658530   0.04818544
O   -1.24108130  -0.07980146   0.33933567
O    0.37869614   1.08295301  -1.05514982
