65
Energy:  -1649.99929063
O   -1.61846101  -0.20896746  -2.85834262
H   -1.99427903  -0.92466241  -2.34572834
H   -0.99108266   0.20637070  -2.26663115
O   -0.38897646   3.44836055  -1.41944078
H   -0.67698790   3.63458205  -0.52579499
H   -0.15164913   2.52113485  -1.40678858
O    3.98424929  -0.71995221  -1.44310521
H    3.91300139  -0.57107070  -0.50024261
H    3.34867046  -1.41205735  -1.62548359
O   -3.27123194   1.74900924   0.24654540
H   -2.67262321   1.00576093   0.32058175
H   -3.24510512   1.98679886  -0.68028000
O    2.40840333   3.49094562  -1.42090002
H    1.46467724   3.64692816  -1.38508997
H    2.50029268   2.69411161  -1.94324450
O   -2.74901179   2.32658581  -2.38419395
H   -2.44958114   1.45533080  -2.64397817
H   -1.94820870   2.79548783  -2.14950872
O   -1.24191878   3.41860335   1.16038615
H   -0.58977247   2.74195829   1.34228862
H   -2.04439091   2.93320587   0.96891914
O   -0.15340756  -3.95757702  -0.88474634
H    0.06632657  -3.86808462   0.04258309
H    0.55744894  -3.51042086  -1.34405697
O    0.46706050  -3.16897917   1.67713653
H   -0.47649797  -3.16223855   1.83802106
H    0.63001045  -2.37265835   1.17161471
O   -2.31894413  -2.26035922  -0.94929090
H   -1.56197866  -2.84487451  -0.98900224
H   -2.01970547  -1.51523202  -0.42825967
O   -2.20339920  -0.62996105   2.92038710
H   -1.43212449  -0.34555705   3.41077626
H   -1.98934802  -0.44234465   2.00648665
O    2.31138883   1.04866215  -2.69464055
H    2.96510514   0.49836580  -2.26329293
H    1.54018698   0.99218872  -2.13046831
O   -4.50839231   0.91133474   2.61471488
H   -4.24189036   1.28834945   1.77622310
H   -3.76601143   0.36878150   2.88068190
O    0.25624111   0.26565158   3.78624408
H    0.92645470  -0.41625718   3.74101089
H    0.33624051   0.73618829   2.95652898
O   -2.26522199  -3.12621431   1.78259161
H   -2.46864093  -2.89203859   0.87704519
H   -2.33360250  -2.30214286   2.26473495
O    2.14437847  -1.70678265   3.37306158
H    1.59315520  -2.30193691   2.86495120
H    2.66604311  -1.24410677   2.71729571
O    1.81771146  -2.33976169  -1.83921592
H    1.50123208  -1.83874538  -1.08751431
H    1.44567012  -1.89267522  -2.59943351
O    3.36264149  -0.37245741   1.21772992
H    3.32367771   0.58297558   1.26087475
H    2.50166435  -0.63323254   0.89070307
O    2.86472842   2.33745515   1.07285447
H    2.80633152   2.80146139   0.23767793
H    1.97222199   2.03624714   1.24296579
O    0.83698230  -0.92044639  -3.94815662
H   -0.05954763  -0.70130941  -3.69429660
H    1.35644865  -0.16630024  -3.66949885
S    0.02439945   0.24209450   0.19215866
O    0.41414866   1.23852250   1.22913831
O    0.92299181  -0.94321629   0.27973787
O   -1.38490161  -0.18522294   0.41880892
O    0.14535894   0.85829473  -1.15905047
