65
Energy:  -1640.85305084
O   -0.64804810  -0.15490351  -3.35360508
H   -0.60202635  -1.06485970  -3.06018798
H   -0.36440667   0.35628628  -2.59567079
O   -0.74087240   3.39494787  -0.63995530
H   -0.85064602   3.35143903   0.30993342
H   -0.34730248   2.55460071  -0.87479827
O    4.34584780  -0.08245069  -0.81433064
H    4.08360624  -0.21763084   0.09626671
H    3.90683085  -0.78282394  -1.29700369
O   -3.00756854   1.67026360  -0.67570433
H   -2.49437665   0.90767849  -0.40862778
H   -2.36113972   2.36724902  -0.78783351
O    2.06843592   3.84593436  -0.38069969
H    1.11312341   3.84131288  -0.44060374
H    2.35134129   3.17879987  -1.00610194
O   -3.36534752   0.03607744  -2.90512388
H   -2.44902797  -0.00119856  -3.17935158
H   -3.37762151   0.67868755  -2.19580488
O   -1.08994838   2.97214142   2.01018902
H   -0.52475329   2.20397083   1.92833366
H   -1.96634002   2.61190840   2.14584189
O   -0.55159298  -2.59481935  -2.18821683
H   -1.42715996  -2.54689906  -1.80439661
H    0.03905118  -2.38054926  -1.46609519
O    0.25049958  -3.38724161   1.46056955
H   -0.70641787  -3.40532300   1.44594423
H    0.48551763  -2.65721902   0.88779964
O   -3.00597130  -2.06594319  -1.10299485
H   -2.45791893  -1.46359193  -0.59996065
H   -3.35628166  -1.53268216  -1.81654035
O   -2.52920451  -0.75608199   2.53002444
H   -1.76977711  -0.67663110   3.10725006
H   -2.17796959  -0.61602279   1.65067849
O    2.63303498   1.70604144  -1.99869478
H    3.26679742   1.16027240  -1.53317016
H    1.78217591   1.42837563  -1.65932420
O   -3.55569882   1.76916652   2.04099778
H   -3.50923633   1.75371189   1.08505100
H   -3.28090042   0.89225028   2.30883276
O   -0.12070284  -0.40138153   3.78178431
H    0.53300412  -1.10047636   3.79464829
H    0.08630140   0.10633606   2.99717999
O   -2.53804071  -3.28105899   1.42390305
H   -2.80724641  -3.02960464   0.54042648
H   -2.59931353  -2.47259608   1.93269104
O    1.82362162  -2.30557038   3.42421084
H    1.28576308  -2.79150876   2.79906771
H    2.37618960  -1.74446543   2.88009532
O    2.68549153  -1.87225501  -1.94680604
H    2.04669015  -1.67190979  -1.26268146
H    2.39590876  -1.36126718  -2.70262686
O    3.11304338  -0.66995407   1.56641485
H    2.98826410   0.26166186   1.74739477
H    2.36058960  -0.91247867   1.02676035
O    2.61979642   2.07594865   1.72971341
H    2.56456888   2.77614158   1.07939686
H    1.75727736   1.66134513   1.70979712
O    2.01770774  -0.10804326  -3.95911491
H    1.06347902  -0.11413767  -3.88399989
H    2.29889447   0.60621595  -3.38727608
S    0.00431639   0.03813600   0.10935095
O    0.34182539   0.74880181   1.37471327
O    0.85342183  -1.17960327  -0.01805003
O   -1.43196594  -0.35780273   0.12998140
O    0.25398427   0.94114820  -1.04924084
