65
Energy:  -1646.39650361
O   -1.12953270   1.10387188  -3.35878278
H   -1.88103579   0.59066339  -3.06197981
H   -0.57642484   1.19056123  -2.58238823
O   -2.23193979   3.40160256  -2.32439284
H   -1.49187295   3.71874191  -1.80674860
H   -1.87344972   2.67681653  -2.83664466
O    3.32759490  -1.54944212  -0.62091287
H    2.47103785  -1.22330905  -0.34490727
H    3.20340160  -2.49296462  -0.72373874
O   -3.39902671   1.72449189  -0.51212965
H   -2.64116660   1.19940135  -0.25491412
H   -3.03959829   2.39770927  -1.08990246
O   -0.03557046   3.95142853  -0.83163432
H   -0.27602552   3.94518039   0.09485052
H    0.24106319   3.05337092  -1.01383804
O   -3.35588681  -0.21272026  -2.45622969
H   -3.03543156  -0.96236557  -1.95465997
H   -3.53762890   0.45708561  -1.79701670
O   -0.73871367   3.55162850   1.80166765
H   -0.18450718   2.77521800   1.72246063
H   -1.61090107   3.20562216   1.99087812
O    2.13279847  -4.06272860  -0.68766567
H    1.51684805  -3.67660764  -1.31035943
H    1.75411350  -3.87627516   0.17144123
O    0.82884478  -2.98294315   1.53509330
H   -0.10222432  -3.07613295   1.73673120
H    0.88274341  -2.18092590   1.01538654
O   -2.18847595  -2.08340985  -0.81416194
H   -1.41242809  -2.37061164  -1.29530296
H   -1.93115433  -1.25048808  -0.41886615
O   -2.13134199  -0.23596366   2.69201779
H   -1.31952061  -0.09579989   3.17939036
H   -1.89638472  -0.06467059   1.78004980
O    2.65768930   0.45382391  -2.50616172
H    2.97700835  -0.22558172  -1.91229709
H    1.90560479   0.83472138  -2.05282096
O   -3.18871125   2.31040166   2.18892792
H   -3.37589333   2.17571692   1.25992052
H   -2.87871308   1.45886935   2.49719033
O    0.35616798   0.21487825   3.73708321
H    1.03268642  -0.46203486   3.75561139
H    0.50810854   0.68362630   2.91646077
O   -1.90330448  -2.87240254   1.83487415
H   -2.07655834  -2.71890636   0.90608253
H   -2.03044821  -2.01793759   2.24713132
O    2.28124031  -1.73919899   3.50372293
H    1.77370534  -2.24454409   2.86869031
H    2.95631303  -1.30611076   2.98128320
O    0.27080668  -2.49437510  -2.00193782
H    0.52266537  -1.91224737  -1.28505125
H    0.41718531  -1.97704588  -2.79388202
O    4.12179340  -0.54853917   1.82681813
H    3.94635252  -0.96499486   0.98300712
H    3.83952493   0.35860813   1.71002720
O    3.20531920   1.97095812   1.24007149
H    3.26362089   2.21886451   0.31737155
H    2.27763045   1.78055805   1.37925926
O    0.76328617  -0.76169122  -4.05906018
H    0.05633759  -0.12470576  -3.95559484
H    1.51499123  -0.35861069  -3.62466699
S    0.14941900   0.49444324   0.07059614
O    0.61088083   1.26199800   1.26139951
O   -1.31309660   0.23323727   0.18426030
O    0.41845066   1.28399843  -1.16403927
O    0.88144113  -0.80146073   0.00076400
