65
Energy:  -1642.15664486
O   -0.91556001   0.83587430  -3.33641991
H   -1.68014714   0.30936975  -3.10311465
H   -0.42748385   0.92607324  -2.51795937
O   -2.09966851   3.14720981  -2.43601358
H   -1.39403260   3.48734397  -1.88590582
H   -1.70449713   2.41342370  -2.90678889
O    4.00551151  -1.26017428  -1.42698721
H    3.93867323  -1.17666123  -0.47578268
H    3.24484980  -1.78524526  -1.67583674
O   -3.30586817   1.54996299  -0.59295587
H   -2.57006992   1.01813561  -0.28965335
H   -2.91256022   2.18422830  -1.19232906
O   -0.01008930   3.72595194  -0.81508818
H   -0.19520256   3.76619244   0.12317918
H    0.27993814   2.82600123  -0.96410047
O   -3.21227142  -0.42688809  -2.50862923
H   -2.98608185  -1.17657284  -1.95813589
H   -3.41787445   0.27277739  -1.88860709
O   -0.58506492   3.46369073   1.86027277
H   -0.09103329   2.64596032   1.80126799
H   -1.49680294   3.18713699   1.95237955
O   -0.26428579  -3.96557604  -0.63659426
H    0.38746550  -3.52816569  -1.18443026
H    0.01670486  -3.78574996   0.26058950
O    0.22247506  -2.87898169   1.93403543
H   -0.73109067  -2.81986217   1.99276480
H    0.46297421  -2.22930088   1.27350014
O   -2.39457264  -2.23407248  -0.60094927
H   -1.66596625  -2.84418718  -0.71551205
H   -1.98408505  -1.42431029  -0.29760624
O   -2.21187148  -0.04646448   2.78717584
H   -1.95190461   0.01443882   1.86796973
H   -1.38599646  -0.11613040   3.26603799
O    2.93934874   1.16576316  -2.09720460
H    3.33247818   0.33224352  -1.83850378
H    2.04691145   1.12719408  -1.75325700
O   -3.14901533   2.45130792   2.02366937
H   -3.31257383   2.22504914   1.10808899
H   -2.89098177   1.62522353   2.43261327
O    0.42611892  -0.53638919   3.54206789
H    0.45015224  -1.37636747   3.08371132
H    0.60025353   0.11356169   2.86127950
O   -2.49057347  -2.67276725   2.09038475
H   -2.62227945  -2.58618376   1.14625093
H   -2.52320456  -1.77491683   2.42058422
O    3.13830815  -0.97339555   3.95754843
H    2.20493855  -0.76289312   3.98478400
H    3.35581844  -0.97962324   3.02540985
O    1.57909488  -2.38510147  -2.00025269
H    1.34517234  -1.87557809  -1.22443182
H    1.46453932  -1.77681107  -2.73038395
O    3.44069881  -0.83071484   1.19705107
H    3.51217724   0.12202245   1.13861865
H    2.54745426  -1.02233383   0.91134461
O    3.23840559   1.83744266   0.72205777
H    2.33780180   1.76478661   1.03807320
H    3.15750088   1.85420456  -0.23156968
O    1.48557345  -0.39982226  -3.91063840
H    0.61659002  -0.00392971  -3.84454189
H    2.06242931   0.20914068  -3.44951662
S    0.18759434   0.29102314   0.18547304
O    0.63119107   1.09401455   1.35957983
O    0.91485689  -1.00933906   0.16974624
O   -1.27788892   0.03935495   0.28098194
O    0.48221831   1.04006213  -1.06841584
