65
Energy:  -1636.11369735
O   -1.95481056   0.20090183  -4.39568742
H   -2.48005243  -0.26885317  -3.74785791
H   -1.05070336  -0.03597527  -4.18902039
O   -1.64210354   2.29617218  -2.64590135
H   -1.80418793   1.66382080  -3.34596722
H   -0.92600657   1.91413100  -2.13847498
O    3.95421565  -0.60981304  -1.58196262
H    3.92325545  -0.55988753  -0.62656702
H    3.27159472  -1.24031940  -1.81157586
O   -3.28845192   1.28391597  -0.72064910
H   -2.62029352   0.72310817  -0.32657956
H   -2.81362207   1.80334060  -1.36946842
O    1.73080816   4.75540128   1.72638065
H    2.21877943   3.99808603   1.40297767
H    0.83198210   4.43974103   1.81966608
O   -3.46204777  -0.90940574  -2.38157043
H   -3.11237263  -1.58598194  -1.80173960
H   -3.52927906  -0.13086896  -1.82876641
O   -0.76609285   3.47879823   1.90649976
H   -0.29397018   2.69118820   1.63631007
H   -1.68347674   3.20804051   1.94295387
O   -0.00573328  -3.99330179  -0.89883122
H    0.26738721  -3.84779085   0.00696324
H    0.60135315  -3.46779731  -1.41990987
O    0.63429313  -3.12265768   1.63969789
H   -0.26595037  -3.05320124   1.95745456
H    0.76375685  -2.33502635   1.11139127
O   -2.30573426  -2.54959202  -0.46640226
H   -1.53835397  -3.06749728  -0.70957605
H   -1.94947344  -1.69969559  -0.20758548
O   -2.18827045  -0.16836333   2.79793724
H   -1.37275939   0.01266577   3.26527227
H   -1.93964867  -0.17107713   1.87359332
O    2.70049937   1.80646454  -1.93170569
H    3.17560007   0.97817477  -1.86501818
H    1.79156768   1.57812744  -1.73693095
O   -3.27301661   2.25994108   1.90505127
H   -3.35834387   2.02342606   0.98146492
H   -2.95381726   1.46298177   2.32837087
O    0.36453892   0.29636048   3.68793015
H    1.03742443  -0.38403339   3.66510202
H    0.45587297   0.75237818   2.85130730
O   -2.01768389  -2.87111207   2.26162592
H   -2.25941895  -2.84138122   1.33593046
H   -2.13089832  -1.97144437   2.56824030
O    2.29146951  -1.65258267   3.30659165
H    1.74584914  -2.26109499   2.80835173
H    2.79927072  -1.18654839   2.64237646
O    1.74503620  -2.18187729  -2.07151453
H    1.50469295  -1.77858794  -1.23735348
H    1.35769477  -1.61058309  -2.73470484
O    3.42949611  -0.34587925   1.10669644
H    3.37651516   0.60914552   1.14347348
H    2.56936637  -0.62193989   0.79015387
O    2.86963034   2.36084541   0.78879062
H    2.89793306   2.35347514  -0.16796247
H    1.99626001   2.03455727   1.00556738
O    0.68398526  -0.18831410  -3.64656438
H    0.46557403   0.19267557  -2.79604968
H    1.35967005   0.38915925  -4.00181984
S    0.10021633   0.24044451   0.07413059
O    0.47734994   1.22253830   1.12929030
O    0.99896262  -0.94521845   0.15511497
O   -1.31110061  -0.19120708   0.27897546
O    0.23565337   0.87566525  -1.26685839
