65
Energy:  -1642.24355181
O   -1.33206460  -0.18741206  -3.21255929
H   -1.61290640  -1.01178898  -2.81536610
H   -0.90506612   0.28886502  -2.50047482
O   -0.96768594   3.32308333  -0.74254444
H   -0.98180445   3.37969264   0.21287583
H   -0.59899688   2.45906915  -0.92633703
O    3.96000797  -0.35192263  -1.39246061
H    3.86693777  -0.32682511  -0.44012669
H    3.41626862  -1.09017134  -1.66735733
O   -3.16015081   1.55577204  -0.34676765
H   -2.66719297   0.75314780  -0.17641875
H   -2.49281144   2.20415776  -0.57145847
O    1.82253870   3.75266557  -0.93621039
H    0.86704283   3.76446558  -0.88035114
H    2.01914769   3.03056775  -1.53299469
O   -3.78269311   1.08970169  -3.01220695
H   -2.95790295   0.65245790  -3.22379830
H   -3.72146359   1.27731693  -2.07557291
O   -1.10780677   3.21560573   1.96230976
H   -0.58500024   2.41875920   1.87319865
H   -1.98337323   2.90383074   2.19124550
O    0.17089502  -4.05645293  -1.20333409
H    0.31757879  -3.97349222  -0.26108506
H    0.85277271  -3.51499733  -1.60095264
O    0.64059769  -3.35123164   1.43602566
H   -0.27565871  -3.29085959   1.70632415
H    0.80226949  -2.54071170   0.95316801
O   -1.95619074  -2.34611350  -1.67523169
H   -1.26538795  -2.99091044  -1.52271855
H   -1.88787697  -1.74182530  -0.93604238
O   -2.34274255  -0.31086152   2.99200329
H   -1.50145868  -0.19869056   3.43459900
H   -2.11860326  -0.37736173   2.06379472
O    2.17002800   1.45678823  -2.42054219
H    2.85001354   0.91102348  -2.02558354
H    1.37281667   1.23140315  -1.94107632
O   -3.56191117   2.05542370   2.32543488
H   -3.57223310   1.91376086   1.37883204
H   -3.20625265   1.24309568   2.68579865
O    0.24173494  -0.06230048   3.86622228
H    0.90633455  -0.74764522   3.79663938
H    0.28712771   0.40177447   3.03027623
O   -1.99408318  -2.83477967   1.87856808
H   -1.89762308  -2.22934529   1.14346503
H   -2.21086067  -2.27468797   2.62391140
O    2.16665075  -1.95600475   3.28903259
H    1.66790042  -2.53968061   2.71736621
H    2.66083596  -1.39723528   2.68920803
O    2.01903752  -2.18720455  -2.01707092
H    1.62114981  -1.76539049  -1.25550010
H    1.70442765  -1.67886644  -2.76463018
O    3.27403674  -0.37023075   1.26492210
H    3.15760316   0.57324045   1.37689162
H    2.45558190  -0.66754673   0.86747181
O    2.52913528   2.28042509   1.31965036
H    2.39443144   2.87781343   0.58397796
H    1.67488818   1.87047580   1.45542711
O    1.23899806  -0.54502411  -4.04742426
H    0.29890040  -0.46108479  -3.88804286
H    1.62310665   0.22533107  -3.62880112
S   -0.09440677   0.03974009   0.20066310
O    0.18925236   0.93030718   1.36106293
O    0.92774639  -1.04288877   0.14393887
O   -1.44813418  -0.56297592   0.35640498
O   -0.04649168   0.83451790  -1.05875438
