65
Energy:  -1626.15009857
O   -1.22906549   0.84907505  -3.25125680
H   -1.94190752   0.29175916  -2.93902757
H   -0.65841992   0.95759531  -2.49045536
O   -2.38984410   3.13126315  -2.26317952
H   -1.64273972   3.49794382  -1.79030303
H   -2.02286162   2.40253400  -2.76368880
O    3.95082471  -1.04390108  -1.97584537
H    3.99800398  -0.94220152  -1.02523337
H    3.17633751  -1.58736772  -2.12091581
O   -3.34097444   1.50650041  -0.30014162
H   -2.55757991   1.00968024  -0.06414460
H   -3.03429446   2.14809324  -0.94087392
O   -0.16296048   3.78369322  -0.87123875
H   -0.25289031   3.83061353   0.08057161
H    0.14724204   2.89390469  -1.03941316
O   -3.37051452  -0.50238832  -2.18306339
H   -3.05423553  -1.23222729  -1.65058378
H   -3.53637785   0.19957865  -1.55380703
O   -0.46323517   3.55228126   1.85319160
H    0.05270974   2.75320264   1.74592528
H   -1.35057280   3.24248151   2.03454183
O   -0.08681529  -3.88502775  -0.61796294
H    0.29920998  -3.69351848   0.23675370
H    0.46740971  -3.41641224  -1.24203505
O    0.68116337  -2.79383120   1.91650369
H   -0.26462176  -2.78307609   2.06349577
H    0.82553837  -2.13771665   1.23466690
O   -2.27363584  -2.24698554  -0.35773768
H   -1.53284512  -2.82131745  -0.55165474
H   -1.87274244  -1.41601485  -0.10277878
O   -1.89750071  -0.01174626   2.96158549
H   -1.02763753  -0.02969095   3.36064423
H   -1.72895760   0.04816790   2.02124759
O    2.73170629   1.36058563  -2.42343510
H    3.18354390   0.53716805  -2.23888670
H    1.88473114   1.27279040  -1.98622012
O   -2.96289678   2.45345355   2.27499788
H   -3.20773356   2.21283606   1.38147115
H   -2.64550709   1.63873124   2.66451451
O    0.79560410  -0.38326410   3.46436544
H    0.80527375  -1.19696659   2.96035492
H    0.94197309   0.30362871   2.81399152
O   -1.99971628  -2.66894100   2.32152024
H   -2.25237306  -2.60648987   1.40038167
H   -2.07875986  -1.77453729   2.65322187
O    2.05288637  -2.77867683   4.43193814
H    1.73654470  -3.06232794   3.57420750
H    1.87741300  -1.83794228   4.45337249
O    1.49200654  -2.22081854  -2.17839843
H    1.33934482  -1.72066016  -1.37667040
H    1.27872467  -1.61185488  -2.88543871
O    3.68889204  -0.61058322   0.66929175
H    3.70601593   0.34628659   0.68769816
H    2.76434299  -0.83196296   0.55779319
O    3.28506876   2.07735377   0.36647851
H    3.11331419   2.07166687  -0.57516892
H    2.42644260   1.94358266   0.76784898
O    1.15155209  -0.26011676  -4.08385432
H    0.27812063   0.09749204  -3.92427591
H    1.74712326   0.37393277  -3.68446977
S    0.25964224   0.38320936   0.14304246
O    0.78862218   1.23213172   1.24740248
O    1.02649756  -0.89305761   0.08669050
O   -1.17968299   0.08732545   0.38981280
O    0.40313221   1.10643789  -1.15173596
