65
Energy:  -1658.27649278
O   -1.04730695   0.75336779  -3.29986975
H   -1.78690214   0.20948659  -3.02890102
H   -0.53473750   0.87675051  -2.50094479
O   -2.26815986   3.04739034  -2.40720494
H   -1.54714429   3.42480912  -1.90329675
H   -1.87484452   2.30960269  -2.87325674
O    4.04355519  -1.08916458  -1.43416051
H    3.96855146  -1.03807138  -0.48127239
H    3.29524342  -1.62073236  -1.70563250
O   -3.33681919   1.47629643  -0.45483380
H   -2.57605007   0.97033829  -0.16940681
H   -2.98449127   2.10434692  -1.08542833
O   -0.12053417   3.73537034  -0.91608616
H   -0.29169839   3.79682104   0.02367896
H    0.18372355   2.83721521  -1.04637984
O   -3.27779581  -0.53768410  -2.32665919
H   -3.02109814  -1.26470248  -1.75940049
H   -3.47192357   0.18007731  -1.72386169
O   -0.62395034   3.52760803   1.77384453
H   -0.08804239   2.73631767   1.72004790
H   -1.50874520   3.20681309   1.94837393
O   -0.23500830  -3.90628141  -0.92824694
H    0.06539030  -3.80646155  -0.02490397
H    0.40362390  -3.41899500  -1.44875892
O    0.47423015  -3.13566004   1.61614486
H   -0.41809794  -3.01346491   1.94026026
H    0.65570968  -2.34454077   1.10877190
O   -2.36562237  -2.26662552  -0.39761323
H   -1.63920160  -2.82836862  -0.66777874
H   -1.94898990  -1.44710680  -0.13108309
O   -2.03173126  -0.05883325   2.92120414
H   -1.19822246   0.05826482   3.37703631
H   -1.80559839  -0.01378668   1.99219038
O    2.89709962   1.30624480  -2.08625318
H    3.31345177   0.47792425  -1.84799325
H    2.00474242   1.23235127  -1.74791870
O   -3.10915322   2.38137717   2.15347729
H   -3.30156972   2.14119159   1.24710065
H   -2.79484294   1.57124226   2.55487774
O    0.53515082   0.24174886   3.83400543
H    1.11510457  -0.51842899   3.78911510
H    0.66352604   0.69120261   2.99869533
O   -2.13561721  -2.73138594   2.29895731
H   -2.37156250  -2.64568438   1.37525990
H   -2.16012918  -1.83618757   2.63696750
O    2.19567587  -1.92193301   3.39677136
H    1.59924273  -2.45812523   2.87427996
H    2.76262577  -1.49699766   2.75316465
O    1.63947202  -2.22390615  -2.06716428
H    1.39815370  -1.75107993  -1.27065145
H    1.49989146  -1.59233966  -2.77276535
O    3.45783151  -0.76862682   1.21233486
H    3.56144031   0.18280874   1.19598134
H    2.57599162  -0.91988484   0.87217129
O    3.28520521   1.91700203   0.71997425
H    3.21239390   1.93830290  -0.23421474
H    2.38281036   1.83195486   1.02767925
O    1.45934958  -0.23337378  -3.95199866
H    0.56511786   0.09333170  -3.85277665
H    1.99884456   0.39401540  -3.47079203
S    0.21894496   0.33904167   0.19010324
O    0.69125342   1.19835658   1.31197783
O    0.98947548  -0.93623501   0.18288573
O   -1.23042876   0.04260780   0.36770614
O    0.42547970   1.05143731  -1.10215675
