65
Energy:  -1639.44052448
O   -0.73795807   0.69400257  -3.59869274
H   -1.54698086   1.20532371  -3.58242445
H   -0.37837720   0.78560651  -2.71634237
O   -2.95442558   2.20814269  -3.09989450
H   -2.42257125   2.65075742  -2.43849067
H   -3.34021709   1.46341866  -2.63861057
O    4.01833985  -1.10854316  -1.62858300
H    3.98893732  -1.08052754  -0.67224495
H    3.26788642  -1.64874634  -1.87603405
O   -3.11695446   1.78288465   0.36147534
H   -2.47289851   1.08638953   0.48921853
H   -2.65051916   2.45218483  -0.13923138
O   -1.25548513   3.23352457  -1.04152687
H   -0.97521637   3.56634122  -0.18893414
H   -0.66669970   2.49977249  -1.21808128
O   -3.99395636   0.12315773  -1.59571975
H   -3.54698406  -0.69165980  -1.36654732
H   -3.82628574   0.70546059  -0.85474621
O   -0.46910535   3.55773090   1.59378136
H    0.12371713   2.81067217   1.51194851
H   -1.16404848   3.25001743   2.17567337
O   -0.49153712  -3.72154660  -1.09110677
H   -0.13396288  -3.70731832  -0.20331735
H    0.17270348  -3.28494012  -1.62439005
O    0.49470862  -3.18966465   1.43769003
H   -0.38125722  -3.04618908   1.79592244
H    0.69071787  -2.38708286   0.95429092
O   -2.54501258  -2.00428311  -0.38425397
H   -1.89674684  -2.60317553  -0.75480929
H   -2.03270775  -1.25654655  -0.07657612
O   -1.57768525  -0.16192100   3.19038140
H   -0.69502845  -0.03844422   3.53952651
H   -1.47583180  -0.07137889   2.24293227
O    2.84778256   1.31467396  -2.11572578
H    3.24474280   0.46775126  -1.91231398
H    1.94461046   1.23637089  -1.80851147
O   -2.58228026   2.40727607   2.95914530
H   -2.92117654   2.26019856   2.07611112
H   -2.22786531   1.55866063   3.22461418
O    1.03958755   0.28581945   3.75638406
H    1.51480069  -0.53500042   3.62731408
H    1.07234690   0.71878527   2.90333115
O   -2.06036229  -2.72106859   2.25778296
H   -2.36631863  -2.50971696   1.37576649
H   -1.95781747  -1.87130000   2.68628005
O    2.34948305  -2.06352569   3.16830021
H    1.71041375  -2.56016767   2.65725322
H    2.90860246  -1.64614847   2.51300364
O    1.58888692  -2.23520127  -2.18921061
H    1.37966443  -1.74857853  -1.39193016
H    1.52281865  -1.58692113  -2.89035232
O    3.56425317  -0.81568062   1.03093001
H    3.69027737   0.13318011   1.02731520
H    2.66756621  -0.93986738   0.71986413
O    3.45666214   1.89225131   0.57083651
H    3.35261920   1.88618952  -0.38067291
H    2.56637484   1.80028804   0.91019344
O    1.73750529  -0.26099110  -4.11257006
H    0.83172320   0.04782362  -4.09197603
H    2.21992893   0.37490625  -3.58423887
S    0.28697953   0.33030860   0.18059948
O    0.90085845   1.22407172   1.20257804
O    1.05884162  -0.94196855   0.10550123
O   -1.12261124   0.03428466   0.56207518
O    0.31082929   1.00484659  -1.14775654
