65
Energy:  -1628.75376384
O   -0.89895008   0.34820339  -3.41350018
H   -1.72684513  -0.06844067  -3.17427360
H   -0.46124674   0.50970646  -2.57769853
O   -1.03596398   2.89992344  -2.14012432
H   -0.43300112   2.32189672  -1.67262807
H   -1.18973478   2.46050279  -2.97648302
O    4.02210419  -1.23701843  -1.23931198
H    3.92517161  -1.16381124  -0.28985075
H    3.29832375  -1.80111395  -1.51165361
O   -3.02839247   1.60395202  -0.74897888
H   -2.50119214   0.99344931  -0.23363618
H   -2.38959094   2.09840103  -1.26248120
O   -1.11070553   5.02718786  -0.36568579
H   -0.66616036   4.62665886   0.38143398
H   -1.02247286   4.38495926  -1.06995084
O   -3.28062662  -0.57429579  -2.41221426
H   -3.33787210   0.20429326  -1.85836059
H   -3.07455461  -1.28560285  -1.80574213
O   -0.41144647   3.57527708   1.83984588
H    0.00178581   2.71994744   1.72202335
H   -1.34879100   3.38548673   1.87980469
O   -0.35974332  -4.00495596  -0.84543741
H   -0.08281100  -3.92567345   0.06739041
H    0.32526423  -3.55908772  -1.34363217
O    0.34997174  -3.27813292   1.70877031
H   -0.56132293  -3.18217332   1.98547523
H    0.53466928  -2.48185081   1.21072066
O   -2.48435933  -2.31312024  -0.42659473
H   -1.75412868  -2.88592874  -0.66087119
H   -2.06834368  -1.51609159  -0.09810097
O   -2.03583142  -0.40580704   3.04820634
H   -1.21018302  -0.17850157   3.47583795
H   -1.89170568  -0.20160811   2.12421369
O    2.85753372   1.12095390  -1.97830230
H    3.27719921   0.30624361  -1.70196939
H    1.95670402   1.04564336  -1.66355476
O   -3.13960491   3.74295388   0.98972519
H   -2.56500516   4.30938679   0.47472933
H   -3.22228218   2.94563618   0.46658008
O    0.50612225   0.20781732   3.88731787
H    1.05350553  -0.57535313   3.83033168
H    0.60716053   0.63369244   3.03605205
O   -2.30194325  -2.98013866   2.23890542
H   -2.51946007  -2.82058764   1.32050368
H   -2.26812986  -2.10825665   2.63249182
O    2.05552833  -2.04467791   3.50604629
H    1.45790279  -2.57558085   2.97953168
H    2.63422265  -1.62931094   2.86665986
O    1.65865659  -2.43928628  -1.88451230
H    1.37942878  -1.93641678  -1.11940711
H    1.57345372  -1.82898155  -2.61697421
O    3.35225273  -0.86960399   1.36846162
H    3.45615343   0.08144386   1.33772922
H    2.47626553  -1.02682949   1.01610043
O    3.22264458   1.80582568   0.77934999
H    3.17073968   1.77935370  -0.17607503
H    2.31461629   1.72546097   1.07133971
O    1.65323828  -0.54641796  -3.87199990
H    0.73933389  -0.26258639  -3.85078078
H    2.12330880   0.12038858  -3.37136571
S    0.14049611   0.20753657   0.24697804
O    0.62784978   1.11796684   1.32108378
O    0.90075320  -1.07288118   0.29835442
O   -1.30985709  -0.06754309   0.44923231
O    0.34323854   0.85260372  -1.08075834
