65
Energy:  -1634.00335773
O   -1.43970352   0.39917420  -3.19328788
H   -2.14521538  -0.11323212  -2.79841496
H   -0.80656870   0.52095306  -2.48579791
O   -2.37029353   2.87201615  -2.53371320
H   -1.56417367   3.22171754  -2.15409290
H   -2.10495293   2.04896691  -2.94409858
O    1.43329154  -2.70637426  -1.78141886
H    1.39063385  -2.15597135  -0.99945416
H    1.36247940  -2.09166417  -2.51172633
O   -3.30523329   1.41169434  -0.43354576
H   -2.52337802   0.91688781  -0.18839136
H   -3.00723658   2.00534949  -1.12275064
O    0.00712446   3.45605172  -1.38081584
H   -0.15448675   3.62227912  -0.45211669
H    0.31751177   2.55111647  -1.41218085
O   -3.58792386  -0.81694733  -1.99995058
H   -3.24852366  -1.48343533  -1.40259550
H   -3.67915463  -0.03313672  -1.45814830
O   -0.52483412   3.59982508   1.30959244
H   -0.00466223   2.79737586   1.35116547
H   -1.39829538   3.33482127   1.59781157
O   -0.36600698  -4.18105665  -0.35760813
H   -0.01762320  -3.96432404   0.50719681
H    0.24519589  -3.77387473  -0.97150208
O    0.53285616  -3.06752089   1.99002606
H   -0.34923978  -2.88566449   2.31416621
H    0.71958044  -2.34868199   1.38617466
O   -2.38947134  -2.36720323  -0.08024693
H   -1.70384864  -3.00574055  -0.27626595
H   -1.92129160  -1.54045865   0.03608438
O   -1.89008971   0.16566308   2.86968108
H   -1.68885497   0.11528553   1.93523016
H   -1.03984469   0.28790892   3.29202124
O    3.41298087   0.96262340  -1.29017447
H    3.57550704   0.21356370  -0.71682759
H    2.45943789   1.00934671  -1.35948944
O   -2.97790833   2.56484338   2.03695450
H   -3.21789866   2.25029401   1.16534956
H   -2.64351445   1.78971808   2.48816768
O    0.68895152   0.46124411   3.72425726
H    1.30068048  -0.27493854   3.73164882
H    0.78630108   0.84542465   2.85295926
O   -2.06985995  -2.54755357   2.63351991
H   -2.32724154  -2.57268101   1.71191523
H   -2.06821536  -1.61679438   2.85693987
O    2.42327467  -1.67984179   3.44115468
H    1.78798592  -2.26404223   3.02721036
H    2.95603544  -1.35246527   2.71643238
O    1.15874653  -0.59356423  -3.54917432
H    0.28302726  -0.49979725  -3.92408148
H    1.12675746  -0.08998355  -2.73577710
O    3.58836990  -0.65177159   1.12596015
H    3.53779495   0.27836419   1.34623599
H    2.70198081  -0.88074835   0.84646799
O    3.33194975   2.06124356   1.26192234
H    3.50180928   1.99912917   0.32196416
H    2.38934340   1.91722462   1.34549066
O    3.73839163   0.37290306  -3.99020083
H    2.86395976  -0.01207939  -4.04841824
H    3.81581573   0.65595840  -3.07909324
S    0.32223907   0.22965483   0.11624630
O    0.76219433   1.22812573   1.13093601
O    1.06208290  -1.04713132   0.32251851
O   -1.14036916  -0.01477368   0.26161447
O    0.60504820   0.75239857  -1.25008382
