65
Energy:  -1655.18276353
O   -0.83917715   0.83194254  -3.32663690
H   -1.67559147   0.42510875  -3.10051923
H   -0.34199933   0.82904564  -2.50868967
O   -1.46107548   3.30126901  -2.25166049
H   -0.65432241   3.49649614  -1.77493449
H   -1.25372636   2.52010356  -2.76451400
O    3.40453770  -1.32282586   0.54425933
H    3.50591091  -0.45294767   0.93061055
H    2.46567523  -1.40264579   0.37574263
O   -2.98870853   1.89453918  -0.46812420
H   -2.37627883   1.21591074  -0.18417848
H   -2.47029809   2.46230177  -1.03832425
O    0.88534576   3.46193969  -0.81622962
H    0.79039534   2.52134451  -0.96621953
H    0.60321390   3.59022882   0.08940571
O   -3.28230253  -0.06247365  -2.38953437
H   -3.20192006  -0.83964381  -1.83656326
H   -3.34220828   0.66635598  -1.77191755
O   -0.00746409   3.34740466   1.77365373
H    0.35504574   2.46192754   1.74629041
H   -0.93814993   3.22012654   1.95765372
O   -1.14085859  -4.08187175  -0.90012670
H   -0.75540984  -4.02353221  -0.02590841
H   -0.47595453  -3.71172997  -1.48075525
O   -0.03211478  -3.40397615   1.51616173
H   -0.87507336  -3.13422477   1.88069823
H    0.25258931  -2.65610068   0.99094014
O   -2.84785748  -1.99678313  -0.45080650
H   -2.25843367  -2.71007743  -0.69580172
H   -2.26593009  -1.28855895  -0.17510582
O   -2.01094808   0.01048133   2.91887313
H   -1.16606685  -0.11228270   3.35169706
H   -1.80172466   0.02908481   1.98500412
O    2.99416588   0.21649229  -1.92734676
H    3.28077299  -0.41298667  -1.26564861
H    2.10767403   0.45899100  -1.65984270
O   -2.64454248   2.63967363   2.18095103
H   -2.86892419   2.45335699   1.26926533
H   -2.47118872   1.78057337   2.56582382
O    0.60643348  -0.40345167   3.74450449
H    1.16530606  -1.16898823   3.61091159
H    0.74203050   0.13203029   2.96277284
O   -2.55452677  -2.58782333   2.22833782
H   -2.81196663  -2.43970506   1.31838312
H   -2.43303274  -1.70967818   2.58935326
O    2.20538136  -2.53468563   2.89501039
H    1.45404822  -2.94481264   2.46661082
H    2.71594811  -2.16011859   2.17719914
O    0.86854160  -2.76842636  -2.17811615
H    0.89863666  -2.25308731  -1.37204432
H    1.01328936  -2.13012643  -2.87658099
O    3.46283275   1.23796228   1.46986156
H    3.58418136   1.83383250   0.73064235
H    2.51329352   1.15591901   1.55860838
O    3.56288376   2.70528413  -0.85289576
H    3.45905185   1.88098140  -1.32826488
H    2.68463903   3.08564935  -0.83739307
O    1.36673066  -0.76569190  -3.99312220
H    2.01600862  -0.41104020  -3.38575727
H    0.59425517  -0.21460792  -3.86734497
S    0.21120260   0.08843654   0.17962682
O    0.80203267   0.79626091   1.35009873
O    0.76979177  -1.29056007   0.09933681
O   -1.26861725   0.01643816   0.33789711
O    0.54160319   0.83160717  -1.06882538
