65
Energy:  -1641.70887079
O   -0.94904561   0.70180642  -3.43807160
H   -1.32875275  -0.16823677  -3.31527430
H   -0.49845813   0.88552687  -2.61378429
O   -2.43698104   2.88548572  -2.62752289
H   -1.73659497   3.30505578  -2.12787086
H   -2.02265564   2.11953045  -3.02486261
O    3.74700106  -1.32934458  -1.41186795
H    3.71201596  -1.22859614  -0.46062790
H    2.95120264  -1.81388866  -1.63130760
O   -3.43137621   1.69027612  -0.36157216
H   -2.71466962   1.09155968  -0.15156708
H   -3.15120906   2.12724332  -1.16580961
O   -0.29731547   3.70301518  -1.15213718
H   -0.41884285   3.84163105  -0.21285629
H    0.02712946   2.80520988  -1.22222989
O   -1.57198281  -1.89611650  -2.88796652
H   -0.66992940  -2.12498059  -2.66401851
H   -2.05080857  -1.97204123  -2.06262225
O   -0.58597376   3.70233957   1.57873279
H   -0.08528043   2.88682479   1.55696869
H   -1.47433359   3.43239242   1.81149273
O   -0.34395727  -3.96157680  -0.44752069
H   -0.03286978  -3.72975799   0.42753157
H    0.26897264  -3.52952367  -1.04239787
O    0.31841851  -2.87523969   1.95158855
H   -0.58853029  -2.72964064   2.22080342
H    0.51027785  -2.15264711   1.35385800
O   -2.46300972  -2.21557557  -0.29737417
H   -1.71680117  -2.81435325  -0.32686901
H   -2.07972669  -1.36478448  -0.08411264
O   -2.09999277   0.24697066   2.93461316
H   -1.25449963   0.36433660   3.36773950
H   -1.89235877   0.24222485   2.00021632
O    2.89827731   1.20356629  -2.00854432
H    3.23118959   0.33515972  -1.78211266
H    1.98399695   1.19142392  -1.72539097
O   -3.08848086   2.70953727   2.15276299
H   -3.30373125   2.44821215   1.25743718
H   -2.79680337   1.90155479   2.57504299
O    0.47443065   0.53663936   3.83796197
H    1.06938206  -0.21283571   3.86145230
H    0.59991261   0.91548316   2.96792548
O   -2.32592549  -2.43396027   2.45142069
H   -2.56460988  -2.39949043   1.52509815
H   -2.32420134  -1.51911676   2.73300590
O    2.14903218  -1.64566202   3.58601065
H    1.49667949  -2.18631970   3.14063768
H    2.70368197  -1.30993229   2.88182246
O    1.15213487  -2.20818963  -2.08560967
H    1.05062831  -1.70214621  -1.27947797
H    1.30427502  -1.55052510  -2.76425728
O    3.33917862  -0.79339259   1.23466196
H    3.48200013   0.15214361   1.19229251
H    2.44275860  -0.91495711   0.92179609
O    3.26404277   1.88421664   0.72695203
H    3.21403956   1.86439411  -0.22873547
H    2.35235300   1.84430757   1.01584800
O    1.56050833  -0.25689107  -3.94622288
H    0.68418606   0.12692231  -3.91494323
H    2.10465350   0.34567204  -3.43921639
S    0.13190658   0.39284734   0.17001237
O    0.62712778   1.28538301   1.25547819
O    0.86675763  -0.90244639   0.21805507
O   -1.32525316   0.14443722   0.35730334
O    0.35899408   1.04401551  -1.15078712
