65
Energy:  -1627.14824776
O   -2.04516537  -1.14016949  -2.62942956
H   -1.63914177  -2.00671644  -2.65117997
H   -1.85202596  -0.80657157  -1.75327807
O   -0.67098134   3.32894796  -1.20444743
H   -0.67125759   3.50035530  -0.26271961
H   -0.22647981   2.48604723  -1.29482768
O    4.08278826  -0.63833409  -1.47443073
H    3.98655581  -0.72001026  -0.52558925
H    3.36475742  -1.15914059  -1.83418641
O   -2.92929429   1.79185122  -0.73375481
H   -2.44592449   1.00242536  -0.49004944
H   -2.25442064   2.40840821  -1.01771762
O    1.74779340   4.33548135  -2.21159016
H    2.27902631   3.56249989  -2.02047997
H    0.87157745   4.10723805  -1.90113492
O   -4.28950834   0.50796342  -2.79338836
H   -3.61087917  -0.15840822  -2.90129177
H   -3.95602165   1.08044196  -2.10252890
O   -0.84279233   3.40030690   1.52860949
H   -0.35103218   2.57925148   1.54509553
H   -1.73630542   3.14964061   1.76319981
O   -0.60621774  -3.45287631  -2.47381170
H    0.27153846  -3.07601796  -2.41254444
H   -0.93209552  -3.44973433  -1.57379745
O    0.55276367  -3.15891516   1.83015491
H   -0.23682991  -2.91029916   2.31074196
H    0.74395357  -2.40283828   1.27515399
O   -1.53909868  -3.05790872   0.04889477
H   -0.72182412  -3.25687952   0.50573693
H   -1.55870667  -2.10229923  -0.00265971
O   -2.33341037  -0.14162156   2.56186095
H   -1.52660881  -0.02348945   3.06320703
H   -2.04644512  -0.17288305   1.64922437
O    2.96448041   1.89566771  -1.44666528
H    3.48760084   1.10464316  -1.57649986
H    2.06113960   1.58185211  -1.40510801
O   -3.35041525   2.34772230   1.91595736
H   -3.34618275   2.21368456   0.96819799
H   -3.06860457   1.50780299   2.27837996
O    0.16835549  -0.01952128   3.74804356
H    0.90630128  -0.62660296   3.80389781
H    0.30357478   0.44737325   2.92344845
O   -2.06366994  -2.83737596   2.72657985
H   -2.16946722  -3.03268028   1.79550788
H   -2.24901890  -1.90100838   2.79794763
O    2.28018318  -1.82069633   3.48279355
H    1.73189921  -2.43935400   3.00021794
H    2.81189291  -1.39567651   2.80983385
O    1.76661720  -2.03631069  -2.22342650
H    1.52616346  -1.76581502  -1.33728545
H    1.36083423  -1.38223598  -2.79242413
O    3.43929375  -0.72329857   1.21475501
H    3.39425310   0.22255886   1.35460106
H    2.58561006  -0.95250740   0.84744138
O    2.91732682   1.92822706   1.32208120
H    3.00313053   2.07795129   0.38056528
H    1.99081153   1.72414818   1.44917598
O    0.35414929  -0.16136747  -3.60516192
H   -0.54582313  -0.47823618  -3.52850878
H    0.48727496   0.37461151  -2.82334613
S    0.13325893   0.12426034   0.07429658
O    0.32983059   0.97572543   1.28113823
O    0.99447943  -1.08739944   0.17568613
O   -1.29572883  -0.28815857  -0.01517212
O    0.50445454   0.89687393  -1.14446594
