65
Energy:  -1628.96106858
O   -1.62598940   0.40738633  -3.32258712
H   -2.37770400  -0.04868466  -2.94422717
H   -0.95863228   0.37992377  -2.63693988
O   -2.07203854   2.92938334  -2.36511945
H   -1.18950675   3.16145509  -2.07613471
H   -1.95995087   2.10697034  -2.84188465
O    4.69773786  -0.10198596  -0.43514773
H    4.18876391   0.70458348  -0.51653020
H    4.13667251  -0.77900972  -0.81340209
O   -3.19806587   1.55850218  -0.29424357
H   -2.49474276   0.96659363  -0.02738647
H   -2.80795351   2.10122131  -0.97944437
O    0.49430854   3.15653346  -1.42764459
H    0.32411482   3.33842225  -0.50342470
H    0.40631002   2.20656753  -1.50544469
O   -3.76237464  -0.60869605  -1.89706122
H   -3.47919540  -1.31814015  -1.32023331
H   -3.73054050   0.17449773  -1.34767435
O    0.06811524   3.20882609   1.25741285
H    0.46138486   2.33646439   1.28099049
H   -0.81456962   3.08364712   1.60588023
O   -0.58604041  -3.93019746  -0.51308384
H   -0.36757330  -4.23600644   0.36724840
H   -0.10716300  -3.10671430  -0.60680548
O    0.40503173  -3.23029261   2.06550467
H   -0.47590773  -3.00338944   2.36331748
H    0.56258558  -2.65172596   1.31940194
O   -2.72099646  -2.31715831   0.02675367
H   -2.05492776  -2.94330388  -0.25701750
H   -2.23390607  -1.51243040   0.20391965
O   -1.93490808   0.12521007   3.05418734
H   -1.06536324   0.22043949   3.44284525
H   -1.76997931   0.03909026   2.11524446
O    2.24150276   0.37444359  -3.06335771
H    2.84447307   0.96198910  -2.60789210
H    1.45487397   0.36799371  -2.51800884
O   -2.49573630   2.66207277   2.12535648
H   -2.85635319   2.38857447   1.28191947
H   -2.34171311   1.84364355   2.59724874
O    0.67776470   0.36227030   3.66927942
H    1.17174930  -0.44043919   3.83621814
H    0.84534628   0.55994132   2.74782708
O   -2.18386445  -2.59182386   2.70846961
H   -2.49681460  -2.57366639   1.80405579
H   -2.14358816  -1.67108214   2.96701235
O    2.13893899  -1.95906211   3.76950900
H    1.56526242  -2.48049770   3.20805377
H    2.69886986  -1.47824089   3.15998442
O    2.91272868  -1.82627450  -1.54803235
H    2.14110040  -1.87161857  -0.98343908
H    2.67736408  -1.19252825  -2.22567610
O    3.37255883  -0.34204301   1.94663483
H    2.54330358   0.00529407   1.61811612
H    3.95063485  -0.34485808   1.18371148
O    2.89592181   2.00251466  -0.61098258
H    2.36599604   1.53525047   0.03483062
H    2.28994720   2.62423178  -1.01408857
O    0.44488534   0.39117313  -5.22160025
H   -0.35076644   0.36003947  -4.69037450
H    1.15908895   0.39136410  -4.58430518
S    0.14560549  -0.14089050  -0.00459638
O    1.01174006   0.63473794   0.92723591
O    0.62873153  -1.54857439  -0.07611766
O   -1.25918965  -0.12253111   0.49170349
O    0.20114000   0.47280556  -1.36120726
