28
Energy:   -378.55550392
Na   0.09181574   0.26193820   0.99976136
O    0.00606691   0.10738763   3.29873953
H   -0.68063885   0.42223039   3.88656696
H    0.69421582  -0.21153192   3.88266869
C    1.63778920   4.71366972  -0.99028449
H    1.38017251   4.85467969  -2.01919168
H    2.67801307   4.92223561  -0.85123893
H    1.05692935   5.37615205  -0.38314523
C    1.34742336   3.25705987  -0.58337489
N    1.13123279   2.17254762  -0.28041220
C   -4.73048444   1.00549241  -0.45542741
H   -5.44976021   1.18555061   0.31601382
H   -4.77051931  -0.02313021  -0.74737228
H   -4.95053402   1.62473081  -1.29983317
C   -3.32093532   1.33555104   0.06977024
N   -2.27146193   1.58129469   0.46080377
C   -1.11509783  -3.45227343  -1.98840731
H   -0.11255666  -3.53841862  -2.35226223
H   -1.77491028  -3.24861733  -2.80576330
H   -1.40342684  -4.36856270  -1.51704816
C   -1.19339287  -2.30262766  -0.96674960
N   -1.25168708  -1.44666413  -0.20607899
C    4.22582209  -2.70175780   0.02409711
H    5.15801527  -2.19138590   0.14834118
H    4.09205560  -2.95416613  -1.00706518
H    4.22717734  -3.59528834   0.61273996
C    3.07473193  -1.78701482   0.48217649
N    2.21769299  -1.10594709   0.82323742
