28
Energy:   -380.49795666
Na   0.04040853  -0.33109147  -0.34799054
O    1.50470501  -1.30076138   1.27622530
H    2.41731011  -1.57427504   1.36882144
H    1.13166743  -1.40941193   2.15102234
C   -2.04671872   2.05328644   3.74407277
H   -2.29521608   1.36161569   4.52172360
H   -2.91611634   2.61682908   3.47674046
H   -1.28272986   2.71832283   4.08895929
C   -1.53735755   1.28053851   2.51321460
N   -1.15811501   0.70519255   1.59678474
C   -4.20726481   0.01210798  -3.24575058
H   -5.04896304  -0.24957705  -2.63914922
H   -4.10136491  -0.70163554  -4.03584834
H   -4.35712976   0.98607990  -3.66266579
C   -2.93256946   0.01420447  -2.38160512
N   -1.98350083   0.01576539  -1.73820955
C    2.13939144  -4.59287991  -0.85122532
H    2.49146680  -5.03333195  -1.76059055
H    1.58010014  -5.31749401  -0.29712539
H    2.97385425  -4.26409503  -0.26772604
C    1.23662324  -3.38925791  -1.17971222
N    0.56447128  -2.49310662  -1.42428565
C    2.98316379   3.81828982  -0.40027229
H    3.84654797   3.71715363   0.22361826
H    2.38332126   4.63214112  -0.04993803
H    3.29102999   4.00963902  -1.40700114
C    2.16076217   2.51711072  -0.35349068
N    1.54844678   1.54832373  -0.31865965
