28
Energy:   -382.18051796
Na   0.21646640   0.02884214   0.10244905
O   -0.27927509   2.30760764   0.82547152
H   -0.84961604   2.88652267   1.33123871
H    0.30593580   2.89988184   0.35327311
C   -0.41543111  -0.04678490  -4.90925360
H   -1.15868142  -0.73888435  -5.24611782
H    0.54155952  -0.33835174  -5.28880177
H   -0.65541540   0.93429287  -5.26251419
C   -0.37765933  -0.04305936  -3.36972140
N   -0.34953653  -0.04028553  -2.22346969
C   -0.46214744  -4.24762476   2.40260523
H   -1.52463019  -4.16084889   2.49480351
H   -0.01818733  -4.24408885   3.37614825
H   -0.22099683  -5.16309929   1.90395520
C    0.08098717  -3.06000512   1.58641629
N    0.48537558  -2.17576832   0.97872651
C    4.74434328   1.77664870  -1.32025062
H    5.53604651   1.48507063  -0.66215610
H    4.70884822   2.84412789  -1.38449528
H    4.91966032   1.36643697  -2.29281905
C    3.40364092   1.25032842  -0.77517800
N    2.40542708   0.85845905  -0.36934666
C   -3.83653691   0.69771011   3.14520348
H   -4.18514675  -0.11669877   3.74529475
H   -4.64984436   1.09296377   2.57318545
H   -3.44065410   1.46370514   3.77878655
C   -2.73401795   0.19851919   2.19291133
N   -1.91314246  -0.17315115   1.48388653
