28
Energy:   -383.60246259
Na  -0.25867808  -0.21402597   0.07515729
O   -1.30519480  -2.19090561  -0.59097800
H   -0.79377997  -2.70838764  -1.21299011
H   -2.18881380  -2.55490181  -0.64534769
C   -0.35233540   1.19952504   4.87851501
H   -1.19323639   0.89007735   5.46334647
H   -0.31636596   2.26833701   4.84321252
H    0.54720585   0.82684322   5.32217354
C   -0.48850289   0.64299037   3.44906492
N   -0.58988577   0.22862501   2.38477435
C   -4.31738829   2.40689808  -1.33069736
H   -5.04158301   1.61996116  -1.36493886
H   -4.20983196   2.83528521  -2.30528199
H   -4.64167530   3.16039815  -0.64369323
C   -2.96315669   1.83846390  -0.86751343
N   -1.95486970   1.41523882  -0.52265195
C    2.03563581   0.77696751  -4.75481834
H    2.92905458   1.33517629  -4.56745230
H    1.42640684   1.30460392  -5.45862156
H    2.29153156  -0.18249171  -5.15338383
C    1.25831496   0.59506586  -3.43789614
N    0.67956425   0.45963182  -2.45738770
C    3.87425345  -2.51217360   1.82913494
H    3.51380240  -3.27415437   2.48819527
H    4.43362339  -1.79188856   2.38877217
H    4.50415203  -2.95297358   1.08494260
C    2.68137375  -1.81773920   1.14620092
N    1.79322058  -1.30070123   0.63772550
