28
Energy:   -380.44597716
Na   0.55542559   0.57728525  -0.16553230
O    2.74680999   1.04198221  -0.76697456
H    3.07200652   0.66952336  -1.58658024
H    3.49890473   1.50596929  -0.39914125
C   -1.96403029  -3.85611638   0.88077467
H   -2.27411190  -4.51008000   0.09268765
H   -2.76068743  -3.74516532   1.58641363
H   -1.10793706  -4.26985418   1.37151342
C   -1.60328744  -2.47910862   0.29314024
N   -1.33469800  -1.45386375  -0.14438030
C   -1.98414695  -0.30021136  -4.32528394
H   -1.85747662   0.28080781  -5.21481839
H   -2.97862683  -0.16969836  -3.95262429
H   -1.81945227  -1.33375942  -4.54788933
C   -0.97218534   0.16325164  -3.26098335
N   -0.21873392   0.50832092  -2.46856318
C    2.43276243  -2.40150526   3.47772837
H    2.08081536  -2.14120852   4.45408847
H    3.47614009  -2.17640540   3.40294737
H    2.28068310  -3.44741650   3.31087321
C    1.65649840  -1.59478175   2.42027325
N    1.07853455  -0.99413942   1.63294985
C   -0.96046568   5.34726725   0.84954776
H   -1.56248002   5.64662521   0.01716340
H   -0.09027132   5.96769491   0.90180079
H   -1.52520205   5.44816834   1.75275920
C   -0.53364547   3.87823879   0.67240411
N   -0.21585842   2.78448032   0.54051260
