28
Energy:   -378.68185062
Na  -0.02327365  -0.56792256  -0.43542323
O   -0.29284922  -1.81470555  -2.49077319
H    0.13424245  -2.35864590  -3.15255371
H   -1.13775930  -1.58513332  -2.87762638
C    1.76756369   3.68296959   1.89210772
H    2.02088782   3.67583078   2.93166344
H    1.18850476   4.55542815   1.67209428
H    2.66323288   3.69240997   1.30679868
C    0.94728276   2.42396667   1.55498633
N    0.33654632   1.48658176   1.30398414
C    1.11097900  -3.89434467   3.19840055
H    1.16359052  -3.31862176   4.09877566
H    2.02466915  -4.43550114   3.06717904
H    0.29461281  -4.58305443   3.26262058
C    0.89518361  -2.95286563   1.99896337
N    0.73451414  -2.25189168   1.10592787
C   -4.81736119  -0.08223791   1.00159051
H   -5.57407611  -0.55248952   0.40901465
H   -4.96202505   0.97786352   0.98908415
H   -4.87986862  -0.43888614   2.00846386
C   -3.43008313  -0.41787449   0.42331059
N   -2.39719155  -0.66777118  -0.00724510
C    2.20746379   2.12624971  -3.89103183
H    3.16543464   2.59677900  -3.81491195
H    1.46068041   2.86720328  -4.08648379
H    2.22195331   1.41497158  -4.69026431
C    1.88265708   1.40632755  -2.56898316
N    1.64082372   0.87031278  -1.58465783
