28
Energy:   -386.44417330
Na   0.98865933   0.39227314  -0.31097393
O   -0.81535005   1.59504016  -1.04007690
H   -0.99213860   2.38867130  -1.54517815
H   -1.68167955   1.25586620  -0.81498566
C   -1.52598247  -2.57089495   2.92755448
H   -1.10695882  -3.55349340   2.98935785
H   -2.53415661  -2.63461884   2.57481766
H   -1.51512061  -2.11693070   3.89641854
C   -0.69367766  -1.71834061   1.95183946
N   -0.07398890  -1.08357515   1.22537528
C    3.46775759  -2.67835641  -3.46089855
H    4.18958024  -2.15379659  -4.05141463
H    2.75446353  -3.14911925  -4.10470988
H    3.96183007  -3.42229875  -2.87154189
C    2.74438647  -1.68506123  -2.53262117
N    2.20580379  -0.94550782  -1.84147646
C    4.46601288   3.25200751   2.00571711
H    4.08445475   3.55505507   2.95833233
H    4.66554678   4.11785923   1.40957442
H    5.37083213   2.69781418   2.14381478
C    3.42572650   2.36728890   1.29390448
N    2.65118600   1.70857567   0.76392762
C   -6.04001079   0.42599659  -0.41998001
H   -6.42639962   1.08568638  -1.16858754
H   -6.42164852   0.71118060   0.53810236
H   -6.34034082  -0.57729779  -0.63930021
C   -4.50237318   0.51007871  -0.40581002
N   -3.35753209   0.57268168  -0.39525981
