28
Energy:   -379.52623578
Na  -0.00006214   0.86755661  -0.69517682
O    1.27668995   2.23847697  -2.05342931
H    0.90391615   3.10489265  -2.21651031
H    2.16061931   2.28507848  -2.41774926
C   -1.18293107  -1.75894998   3.33613818
H   -0.98409225  -2.72539681   2.92220120
H   -2.17684849  -1.73804477   3.73185300
H   -0.48286201  -1.55548391   4.11933929
C   -1.04618809  -0.69091401   2.23513840
N   -0.94437673   0.10428732   1.41539401
C    0.02396426  -2.82092923  -4.07399550
H   -0.75299462  -2.70401791  -4.80033346
H   -0.12846441  -3.73080761  -3.53197527
H    0.97226596  -2.85490155  -4.56843343
C   -0.00325802  -1.63075257  -3.09709302
N   -0.02352624  -0.74461194  -2.36974472
C    3.51466889  -2.05067722   2.01710782
H    4.03790658  -1.25771116   2.50937535
H    4.20674066  -2.63494162   1.44739661
H    3.03986855  -2.67203630   2.74743420
C    2.44888741  -1.45675796   1.07744312
N    1.65536466  -1.01455807   0.37782004
C   -3.36520957   4.11093338   0.90510020
H   -4.23110988   4.11013004   0.27651753
H   -3.05569158   5.11934197   1.08457115
H   -3.59993412   3.63881960   1.83618133
C   -2.22660501   3.34022457   0.21142333
N   -1.37886216   2.76639683  -0.30505063
