28
Energy:   -379.06496966
Na  -0.95021860   0.20342577   0.22494798
O   -2.84342950  -1.08916759   0.54883644
H   -3.78389005  -0.91657267   0.59329762
H   -2.76632392  -2.03404599   0.68109141
C    2.57677924   1.07760950   3.74660517
H    3.32322913   1.76475554   3.40668890
H    2.99794821   0.09602609   3.80992814
H    2.22780206   1.37895603   4.71216422
C    1.39854511   1.06766546   2.75500775
N    0.52129624   1.06026168   2.01671840
C    1.08632582  -1.10363796  -4.20628241
H    1.05721685  -2.17126036  -4.27136124
H    2.09261991  -0.78421309  -4.03238859
H    0.73116910  -0.68063072  -5.12270353
C    0.19106833  -0.63560619  -3.04393122
N   -0.47549157  -0.28713526  -2.17850793
C    2.79031536  -3.82659209  -0.07708803
H    2.65319444  -4.22013308  -1.06259477
H    2.59102360  -4.59201544   0.64354293
H    3.79858852  -3.48604815   0.03388106
C    1.82333678  -2.64867642   0.14442291
N    1.10337727  -1.77166467   0.30934788
C   -3.50296432   4.55245034  -0.11457864
H   -3.40860582   5.22452016   0.71265701
H   -4.52288720   4.24270636  -0.20793314
H   -3.19678652   5.04703530  -1.01265434
C   -2.61150904   3.31913717   0.12173920
N   -1.94778007   2.40087946   0.29768857
