28
Energy:   -378.99151364
Na  -0.63325568   0.68098334   0.64943489
O   -0.10648798   2.15957443   2.33117124
H    0.73084524   2.10101992   2.79125415
H   -0.69948408   2.56641768   2.96288798
C    2.57450675  -3.11862700   1.02447027
H    2.39187002  -3.57587721   0.07448803
H    2.59366371  -3.87126483   1.78477836
H    3.51631761  -2.61134129   1.00096287
C    1.45428980  -2.10740304   1.33129288
N    0.62023737  -1.35450085   1.55973626
C   -4.56929026  -2.36272523   1.77500328
H   -5.52870206  -2.06051955   1.41017332
H   -4.60215633  -2.44235851   2.84152916
H   -4.31050365  -3.31189321   1.35427922
C   -3.51360927  -1.31696892   1.37061313
N   -2.72760680  -0.53835581   1.06952629
C    4.48223845   0.82423040  -1.43821024
H    4.73422643   1.81297435  -1.76037114
H    4.53198804   0.15422924  -2.27099023
H    5.17250952   0.50798390  -0.68427848
C    3.05448502   0.82063762  -0.86105581
N    1.99145769   0.81796263  -0.43133810
C   -2.02260292   2.55846527  -3.83644125
H   -1.19541488   2.94870733  -4.39175312
H   -2.69726217   3.35328299  -3.59561192
H   -2.53216622   1.82394237  -4.42442122
C   -1.50873919   1.91002778  -2.53756755
N   -1.12614429   1.42723660  -1.57049704
