28
Energy:   -383.97263914
Na  -0.25578077   0.06322315  -0.67268815
O   -1.64855077  -1.08132473  -2.12984755
H   -2.01563823  -1.84843366  -1.69050425
H   -1.89776094  -1.18835845  -3.04781810
C   -0.73157066  -4.96424774   1.43267294
H   -0.34184052  -5.61173136   0.67519320
H   -1.69446027  -5.31476675   1.74069748
H   -0.06867290  -4.95841235   2.27257270
C   -0.86072695  -3.53626607   0.87072366
N   -0.95688968  -2.47306881   0.45232687
C    2.84936880   2.07513119  -4.14388795
H    3.59507099   2.55566653  -3.54562863
H    2.35326193   2.80462932  -4.74937086
H    3.31329347   1.34489620  -4.77351469
C    1.82243154   1.38457883  -3.22729790
N    1.05783008   0.87043121  -2.54485495
C   -3.77442830   1.77784051   2.47629204
H   -3.35673570   1.89130661   3.45484123
H   -4.45064682   0.94862371   2.47108568
H   -4.30143293   2.66952643   2.20784940
C   -2.64384952   1.52462489   1.46176088
N   -1.80208223   1.33609434   0.70639632
C    3.27453649   2.07167393   2.38243627
H    4.07491047   2.43042099   1.76957232
H    3.66252202   1.39754267   3.11722424
H    2.80139464   2.89781393   2.87083015
C    2.24515587   1.33656609   1.50403316
N    1.47873521   0.78924489   0.85002213
