28
Energy:   -378.84800129
Na  -0.10494445  -0.14676908  -0.25311041
O   -0.80275890  -1.31972286  -2.23015909
H   -0.07151674  -1.77086336  -2.65204652
H   -1.54622587  -1.46945922  -2.81416915
C   -0.21598397   1.62793411  -4.69735031
H   -1.02076355   0.98354653  -4.98369737
H    0.69463445   1.27835764  -5.13720197
H   -0.41728865   2.62246598  -5.03688217
C   -0.07858425   1.62711690  -3.16349222
N    0.02371608   1.62650845  -2.02146515
C    4.64614236  -0.27826065   1.73309251
H    5.29473059  -1.00513774   1.29050557
H    4.51443143  -0.50270097   2.77096431
H    5.07869334   0.69504608   1.63075610
C    3.27967297  -0.30990891   1.02361399
N    2.26227439  -0.33347248   0.49537499
C   -2.59037203  -3.98521027   1.95100995
H   -2.22430861  -4.17732346   2.93791941
H   -2.44610845  -4.85299338   1.34187977
H   -3.63341256  -3.75096837   1.99679511
C   -1.82366142  -2.79688301   1.34139272
N   -1.25281052  -1.91211936   0.88750498
C   -1.21098457   3.66346347   2.98234484
H   -1.36675851   3.29888061   3.97618286
H   -2.07679503   4.20374435   2.66083602
H   -0.36047084   4.31259186   2.96978225
C   -0.96477028   2.47632793   2.03277245
N   -0.78145255   1.59245156   1.32577264
