28
Energy:   -378.70045630
Na   0.56590046   0.48547104  -0.07356431
O    1.23943802   2.74210442  -0.20052736
H    0.67076034   3.48758407  -0.39313484
H    2.11751380   3.11874874  -0.14261510
C    2.34439849  -2.65470588  -3.58919354
H    2.03401654  -2.44034010  -4.59049796
H    1.95311528  -3.60463213  -3.29013394
H    3.41318842  -2.67915844  -3.54459247
C    1.81601232  -1.56085329  -2.64267646
N    1.42260480  -0.74643032  -1.93795148
C    4.28220266  -1.90595748   2.63610921
H    3.99896822  -2.10877092   3.64781329
H    5.13437113  -1.25894277   2.62716648
H    4.52607002  -2.82379964   2.14316544
C    3.11237420  -1.22426744   1.90235171
N    2.24138374  -0.71671823   1.35603590
C   -3.97570938   3.45044551   1.16947863
H   -3.79857252   4.48361631   1.38414302
H   -4.22757758   2.93641807   2.07349041
H   -4.78360168   3.36424056   0.47321874
C   -2.70538884   2.82733670   0.56151386
N   -1.75957747   2.36340386   0.10885645
C   -3.99565523  -1.52343715   0.09791001
H   -4.53294015  -0.75916600   0.61955616
H   -4.13469183  -2.46031224   0.59573827
H   -4.36099153  -1.59491992  -0.90524436
C   -2.49644395  -1.17213412   0.07442132
N   -1.38021300  -0.91057304   0.05693292
