10
Energy:   -324.79557156
O   -1.52882490  -0.06089642  -1.29644307
H   -1.85088696   0.60043144  -1.90894069
H   -2.15809974  -0.77884418  -1.36569647
O    0.11439242  -1.58278883   1.50604745
H    0.63820235  -1.41259644   2.28892007
H   -0.00883524  -2.53201243   1.50142696
O    1.36765034   1.61538602  -0.20308646
H    1.02192713   2.50643918  -0.25535107
H    2.31608629   1.72122088  -0.27724908
Li   0.12851918  -0.06868028   0.00768535
