10
Energy:   -322.55208637
O    0.14971605  -0.27911158   1.49224219
H   -0.02671189  -0.83211919   2.25335165
H    0.14554335   0.61345711   1.83798134
O   -1.93586663   0.78907675  -0.68869646
H   -2.58482599   0.98225932  -0.01211379
H   -2.32053191   1.13234091  -1.49519146
O    1.81247035  -0.65733133  -0.98184523
H    2.37179864  -1.02920995  -0.29987016
H    2.42262608  -0.25273462  -1.59848397
Li  -0.05481039  -0.43558913  -0.46249809
