10
Energy:   -325.62438442
O    1.67335051   0.54502311  -0.50701914
H    2.41451419  -0.05905535  -0.46232618
H    2.05690664   1.40760832  -0.34870524
O   -1.28386514  -1.30735436  -1.11715793
H   -1.01238091  -2.20735096  -0.93678531
H   -1.41088955  -1.28049477  -2.06551188
O   -0.66055068   0.87958317   1.50619637
H   -1.39443940   0.86423441   2.12052820
H    0.11758438   0.91251203   2.06266144
Li  -0.39729910   0.20447211  -0.21145221
