10
Energy:   -320.61889760
O    1.02394638   1.28235483  -0.85694064
H    1.26756734   1.75483183  -0.06092169
H    1.63700859   1.59831279  -1.52068543
O   -0.79390258  -1.84855129  -0.96878593
H   -1.58737825  -2.08552611  -1.44886003
H   -0.40763463  -2.68676353  -0.71495692
O   -0.27539472   0.60015351   1.65325228
H    0.07281738   1.33992025   2.15097244
H   -0.73398413   0.06802617   2.30345848
Li  -0.20110313  -0.04658811  -0.49897729
