10
Energy:   -323.29105214
O   -1.50813424   1.06770202   0.14545865
H   -1.51215836   1.87614269  -0.36702485
H   -2.42587140   0.79721429   0.17421189
O    1.90220835   1.00881786  -0.02324938
H    1.68443062   1.91339303   0.20158051
H    2.85077493   0.95437114   0.09289205
O   -0.34361800  -2.09795368  -0.06283190
H   -0.91510241  -2.58246818   0.53288877
H   -0.03258740  -2.75558630  -0.68493411
Li   0.30738980  -0.19168162  -0.04671698
