10
Energy:   -320.20586057
O   -0.89813089  -1.10944804  -1.62779639
H   -1.22358973  -2.00803570  -1.57442411
H   -1.34426181  -0.73741042  -2.38857695
O    0.23356416   1.87440321   0.07498448
H   -0.34442980   2.07278506   0.81173374
H    0.56272802   2.72742802  -0.20826748
O    0.82076293  -0.90104785   1.37817706
H    1.39810052  -1.39134872   1.96342762
H    0.24845313  -0.40635910   1.96467206
Li   0.52058970  -0.05262346  -0.33678907
