10
Energy:   -327.65081102
O   -0.67393338   1.31792244  -1.31777847
H   -1.59236184   1.36394309  -1.58349095
H   -0.19139875   1.68790052  -2.05704053
O    0.23523415   0.03951485   2.35344041
H    0.58289412   0.71499267   2.93575829
H   -0.09966926  -0.63628548   2.94281760
O    0.50707063  -1.30936929  -0.92252975
H   -0.06876784  -1.38366555  -1.68353039
H    1.16954131  -1.98731698  -1.05576402
Li   0.10609617   0.18738045   0.36811623
