10
Energy:   -324.75562944
O   -0.57331512   0.35055996   1.46979600
H   -1.19571790   0.78635232   2.05197435
H    0.04157860  -0.08596532   2.05935791
O    2.02202031  -0.71448911  -0.03439465
H    2.74840697  -0.99030087  -0.59343145
H    2.43131351  -0.50567174   0.80531139
O   -1.49648182   0.37356672  -1.58254821
H   -2.37184388   0.50917833  -1.21980504
H   -1.64796757   0.17144415  -2.50581978
Li   0.07681296   0.11287211  -0.41746519
