10
Energy:   -319.27600426
O    0.61374439  -1.77514086  -0.62425966
H    0.72616897  -2.56141559  -0.09006436
H    1.32624336  -1.81455447  -1.26224370
O   -2.11757927   0.66529058   0.10877271
H   -2.10318780   1.20315649   0.90043236
H   -2.91285362   0.93533126  -0.35040980
O    1.33026368   0.99164323   0.44923811
H    1.32505155   1.90337005   0.74071519
H    2.24160644   0.71464122   0.54387482
Li  -0.37751987  -0.22309101  -0.42850896
