10
Energy:   -349.11029612
O    1.65968741  -0.29635910  -0.95240694
H    2.49888978   0.14404992  -0.81820143
H    1.82482689  -0.91610595  -1.66295226
O   -0.56631525   1.80333667   0.42039992
H   -0.52495303   2.57659372  -0.14226744
H   -0.95037543   2.12135024   1.23746600
O   -1.09337241  -1.50697797   0.53200769
H   -2.04596670  -1.58630846   0.48198125
H   -0.80242133  -2.33957804   0.90397065
Li   0.00000022  -0.00000091   0.00000248
