10
Energy:   -328.42021677
O   -0.35384821  -1.14285767   1.06096274
H   -0.27321747  -1.96856540   0.58353498
H   -0.49024486  -1.40448136   1.97155642
O   -1.05707633  -0.26607666  -1.77844280
H   -0.54396386  -0.36374528  -2.58057014
H   -1.78325806  -0.88107955  -1.88170653
O    1.24970466   1.69555647   0.71452356
H    1.58124843   1.41410706   1.56722328
H    1.92927136   2.27655118   0.37266671
Li  -0.19241597   0.54604576  -0.03173526
