10
Energy:   -331.48692906
O    0.63295776  -1.18250271  -1.68281987
H    1.35739116  -0.94590984  -2.26200197
H    0.13689851  -1.83729857  -2.17414405
O   -1.90981813   0.56642477   0.40104690
H   -2.11282221   1.04223638   1.20641918
H   -2.75765303   0.25021556   0.08892581
O    1.27754960   0.55050808   1.26350085
H    1.12188123   1.08144177   2.04459535
H    2.20859479   0.33191428   1.30354382
Li   0.05035894   0.20166087  -0.20201377
