10
Energy:   -329.71636548
O    1.27655571  -1.52367635  -0.50905088
H    1.27460807  -1.98633192   0.32890966
H    2.15330201  -1.67234575  -0.86323330
O   -1.98563463  -0.09929746  -0.26744707
H   -2.51055764   0.65217336  -0.54309046
H   -2.54384696  -0.56707485   0.35369314
O    0.71888718   1.50834590   0.47353431
H    0.11810376   2.12895218   0.88601337
H    1.56091230   1.67065715   0.89883491
Li  -0.07635031  -0.05505644  -0.66860315
