10
Energy:   -322.85952455
O    1.27681039  -1.34347784  -0.84711450
H    2.19143356  -1.08502251  -0.96068014
H    1.31501850  -2.27795774  -0.64335161
O    0.93410064   1.62389875   0.72358206
H    0.60553136   2.08411324   1.49590109
H    1.67445435   2.15264942   0.42604052
O   -2.23627910  -0.28664020  -0.03503785
H   -2.96988977   0.23617476   0.28855412
H   -2.61603050  -1.14622658  -0.21705974
Li  -0.18194487   0.05175862  -0.16270993
