10
Energy:   -331.68988481
O   -0.20646099  -1.79906095  -0.77542320
H   -0.42821149  -2.62001872  -0.33600666
H   -0.30017497  -1.99311997  -1.70804886
O   -0.23118358   0.33176708   1.76348963
H   -0.99071454   0.70896864   2.20740804
H    0.29798650  -0.04136183   2.46846176
O    0.56265394   1.43874473  -1.02695323
H    0.10285256   2.16386247  -1.45005936
H    1.47441549   1.72659933  -0.98153905
Li  -0.39415638   0.11190871  -0.15802828
