13
Energy:   -314.55995336
O   -0.18741046   0.91010438   1.85407398
H   -0.11670437   1.80081519   2.19739128
H   -0.40544643   0.37529251   2.61740119
O   -2.37019079  -0.82988942  -0.26800693
H   -3.21724765  -0.48807404  -0.55416908
H   -2.58077152  -1.41368369   0.46073984
O    1.17955036   1.61014964  -1.22180535
H    1.21501801   2.55108544  -1.04971904
H    1.98722378   1.42306933  -1.70023661
O    1.30705242  -1.71876138  -0.64723946
H    1.78870023  -1.84351031   0.17049212
H    1.67595477  -2.36930017  -1.24468585
Na  -0.26729243   0.00925976  -0.51856164
