13
Energy:   -316.40885279
O   -0.50553534  -0.50046778   2.29521958
H   -1.25314388  -0.28135242   2.85136864
H    0.04989202  -1.05204376   2.84612451
O   -1.30183481   1.74695381  -0.86895229
H   -0.81686621   2.55071973  -1.05602890
H   -2.22212846   2.00714344  -0.90886222
O    1.72373312   0.69483305   0.19375895
H    1.85014309   1.05130067   1.07306732
H    2.59096864   0.73684325  -0.20919211
O   -0.01588119  -1.92250329  -1.77782253
H    0.73194051  -2.11630553  -2.34300855
H   -0.51000226  -2.74162005  -1.74429735
Na  -0.30111401  -0.20730120  -0.29915849
