13
Energy:   -311.10943967
O    1.40483055  -0.33856147   0.37431485
H    2.31982063  -0.42812371   0.64077988
H    0.94749585  -1.03234278   0.84944042
O    0.77092678   2.96096665  -1.58153180
H    0.43065420   3.47472460  -2.31399286
H    1.35372886   3.56179541  -1.11722761
O   -0.19431709  -2.18867246   1.67685570
H    0.01543053  -3.11349318   1.54668492
H   -0.52568808  -2.14166132   2.57363609
O   -1.91019850  -0.28710687  -0.63044011
H   -2.69162726  -0.44160794  -1.16122290
H   -2.00902692  -0.87452409   0.11883007
Na   0.05534939   0.86692289  -1.00203481
