13
Energy:   -310.93422500
O    1.09322546   1.31587125  -1.00490982
H    0.45693297   2.02995483  -0.96685259
H    1.81448360   1.66477548  -1.52863148
O    2.29626326  -2.48025968  -0.46120981
H    2.05959630  -3.19644244  -1.05053387
H    3.18264733  -2.69283997  -0.16903734
O   -1.19301160  -0.78444292   1.03773594
H   -1.86673470  -1.35273943   1.41105632
H   -1.62458283   0.06370580   0.93467350
O   -2.08406816   1.77577748   0.52251098
H   -2.81398743   1.95693223  -0.06963147
H   -2.16708381   2.43268523   1.21375078
Na   0.88541891  -0.72021294   0.08987953
