13
Energy:   -312.28906818
O    0.99206710   0.99449934   1.41169078
H    0.61951294   0.37460973   2.03872516
H    1.44236797   1.64249838   1.95350091
O   -0.97769170  -0.90029295  -0.65936061
H   -1.17357807  -1.11538546   0.25255802
H   -1.51041780  -1.51030243  -1.16957938
O    1.36016211   1.35967433  -2.94356285
H    1.14871697   0.75637832  -3.65599300
H    1.80079202   2.09299481  -3.37288581
O   -1.24274215  -1.29687594   2.04538922
H   -0.96708756  -2.07652409   2.52746304
H   -2.09711292  -1.07529331   2.41577224
Na   0.60127864   0.75383357  -0.86188948
