13
Energy:   -312.88163147
O    0.99533805  -1.13084506  -1.90173566
H    1.90143172  -1.34254156  -2.12625892
H    0.48117094  -1.46873558  -2.63501188
O   -1.52517947  -1.12067640   1.02859157
H   -2.03674616  -1.79085819   1.48178882
H   -2.09755537  -0.35369173   1.00982480
O    2.29184829   0.63383447   1.19187909
H    3.23398199   0.50853540   1.07823017
H    2.21923100   1.36821246   1.80150812
O   -1.65169169   1.38578382  -0.25760619
H   -2.44111901   1.18830180  -0.76162723
H   -1.74862400   2.30539986  -0.01033646
Na   0.35834106  -0.06326560   0.07599833
