13
Energy:   -311.46720481
O   -1.88248218  -0.99526397  -1.84230259
H   -2.32642578  -1.83851240  -1.75242482
H   -2.18910524  -0.65082188  -2.68109565
O    1.98712643   1.61331459   2.52487930
H    2.01070988   1.26530238   3.41626203
H    2.54633777   2.38957510   2.55544333
O    1.27504730  -1.15409685  -0.75194683
H    2.01195936  -1.73532123  -0.94001781
H    0.58436036  -1.44131315  -1.34918230
O   -1.27742980   0.67685809   0.17244169
H   -1.57803261   0.08826640  -0.51996687
H   -2.08127413   1.03744999   0.54666038
Na   0.97388889   0.75314096   0.63728931
