13
Energy:   -311.43477001
O   -1.05629378   1.96207222   1.47199483
H   -1.43455212   2.79623257   1.19391393
H   -1.23240383   1.92016738   2.41192093
O    1.74067164   0.51490129   0.63162970
H    2.64140876   0.45865395   0.95059792
H    1.42197717   1.35575996   0.95968822
O    1.09268546  -2.43930507  -2.20672228
H    2.00383297  -2.61542746  -2.44129202
H    0.58031576  -2.91361898  -2.86150121
O   -1.74364778  -0.25732731   0.01904321
H   -1.66245713   0.53227812   0.55398544
H   -2.68644488  -0.36803198  -0.10387930
Na   0.35719724  -0.93219759  -0.60177233
