13
Energy:   -311.04949997
O   -2.44313237  -0.51681323   1.44784738
H   -2.50480255  -1.13977254   2.17196776
H   -3.31661575  -0.12974614   1.38921544
O    0.75925248   1.29678001   1.35846453
H    1.42471705   1.72402730   1.89776826
H   -0.02948865   1.30310916   1.90075525
O    2.67144425   0.34182853  -2.23940046
H    2.76819896   0.73302376  -3.10763814
H    3.49999255  -0.11270554  -2.08728756
O   -0.88659485  -1.09035541  -0.72822154
H   -1.28626973  -1.79767545  -1.23437388
H   -1.48759318  -0.94949233   0.00334558
Na   0.87506239   0.36166749  -0.77196341
