13
Energy:   -314.45914648
O    1.31719698   0.26883621   1.65373102
H    0.94758566   0.54425286   2.49263804
H    2.26032838   0.22267752   1.81058888
O   -2.59272345   0.68073244  -0.39296544
H   -2.92470900   1.48382491  -0.79428816
H   -3.31567167   0.36745729   0.15057517
O    0.95281630   1.24066489  -1.70202285
H    0.92096499   1.59464350  -2.59079531
H    1.71301286   1.66336435  -1.30245032
O    0.21708334  -2.29778919   0.21108388
H    0.95626055  -2.34920006   0.81705898
H   -0.07106745  -3.20458312   0.10655759
Na  -0.36479771  -0.17613865  -0.37678164
