13
Energy:   -310.91575521
O   -0.19439712  -0.95703746   1.45108716
H   -0.39337929  -1.49950931   2.21421377
H    0.74472214  -0.78428349   1.51774241
O    2.50307576  -0.35176123   1.36041062
H    3.09522946  -1.10252367   1.31634718
H    2.97732605   0.29781229   1.87942195
O    0.67787504   1.09171506  -1.42061580
H    1.56398480   1.15008860  -1.06335697
H    0.73872672   1.50465880  -2.28201373
O   -3.19709275   0.17705365  -1.36811065
H   -3.48800916  -0.37188162  -2.09630675
H   -3.92403360   0.78136364  -1.21778340
Na  -1.11567253   0.09719354  -0.34231821
