13
Energy:   -314.10759994
O    0.52541110   0.70641782   3.51042065
H   -0.05105310   1.17823209   4.11151313
H    1.21109489   0.34322901   4.07092353
O    1.06375672  -1.19718199  -0.35965975
H    0.68376476  -1.05010721  -1.22580463
H    1.59450660  -1.98723016  -0.46144537
O   -1.11381935   1.20318962  -0.29559282
H   -1.84995661   1.81434052  -0.26681175
H   -0.97073756   1.04359193  -1.22848512
O   -0.37781250  -0.60644637  -2.68578716
H    0.01457092  -0.44425130  -3.54366819
H   -1.03573681  -1.28278780  -2.84681424
Na   0.28510542   0.24944041   1.27320903
