7
Energy:   -132.40042710
O   -1.04153158   0.96161807   1.50350736
H   -1.38795236   1.34867206   0.69950879
H   -1.24379882   1.60264961   2.18497517
O    0.94031978  -0.98312959  -1.45491705
H    1.70370132  -1.03314729  -2.03022453
H    0.19000687  -1.05319989  -2.04513102
K    1.00903235  -0.93818608   1.25857719
