7
Energy:   -130.50234634
O    1.29173588  -0.80348074  -2.44265657
H    0.81317894  -1.20485590  -3.16799311
H    2.21285646  -0.97410914  -2.63926448
O   -1.25570209   0.85227519   2.44176417
H   -1.66248700   1.64076552   2.80098680
H   -1.38668341   0.18600427   3.11641876
K   -0.03674548   0.31218414  -0.12269192
