7
Energy:   -128.10890696
O    1.06274918   1.35066252   0.52734780
H    1.83156473   0.78129478   0.55857082
H    1.24554254   2.03618213   1.16990621
O   -1.04504587  -1.35463087  -0.60225452
H   -1.34505013  -2.17510360  -0.99347542
H   -0.50781270  -1.62598781   0.14204231
K   -1.41183665   1.11644972  -0.85868062
