7
Energy:   -127.91428726
O   -1.14054929  -0.37908688   2.03570722
H   -1.38900691  -0.31685704   2.95800224
H   -1.93398649  -0.68059837   1.59323680
O    1.15286213   0.28527344  -2.07086997
H    1.90860590   0.29464239  -2.65823309
H    0.39982366   0.17049792  -2.65051770
K    1.12296694   0.76406623   0.91580538
