7
Energy:   -132.00255713
O   -1.57389621   0.84483493  -1.31322745
H   -1.72960871   0.40921184  -2.15121193
H   -2.36247379   1.36638736  -1.16369382
O    1.50787558  -0.89545935   1.38930716
H    0.92540984  -1.11160573   2.11748726
H    2.24761808  -1.49491551   1.48761887
K    1.15184304   1.02557784  -0.46003070
