7
Energy:   -131.32240133
O    1.05095552   2.11617784   0.25654149
H    0.52342254   2.90236579   0.11565389
H    1.94730456   2.39079453   0.06321296
O   -1.16946030  -2.05702466  -0.28129226
H   -0.81501607  -2.14498488  -1.16608836
H   -1.63220983  -2.88026825  -0.12520032
K    0.18015985  -0.40536426   1.29798998
