7
Energy:   -128.11453419
O   -2.03769712   0.47201920  -2.04781778
H   -2.42504169   1.29071192  -2.35755679
H   -2.41641476  -0.20149496  -2.61278103
O    2.03242333  -0.47753293   2.05400967
H    2.02010340  -0.21925935   2.97562501
H    2.76386441  -1.09126899   1.98652745
K    0.07404525   0.25925771  -0.00156532
