7
Energy:   -132.09297711
O   -0.44842444  -0.12160565  -2.18529305
H   -0.69878327  -0.66483471  -2.93259118
H    0.40203096   0.24409168  -2.42865064
O    0.46741274   0.06860755   2.17335633
H    0.92710877  -0.70991613   2.48770055
H    0.75626332   0.76997322   2.75720853
K   -1.59723897   0.49928548   0.15204209
