7
Energy:   -133.32696948
O   -0.81352471   0.93479645  -2.23191507
H   -0.24171943   1.32926157  -2.89044969
H   -1.67962404   1.29744980  -2.41788908
O    0.82123099  -0.97701794   2.25915989
H    0.98766954  -0.22640985   2.82935069
H    1.03161120  -1.73935671   2.79842941
K   -0.12391400  -0.67192048  -0.40784799
