7
Energy:   -139.43122950
O    1.76752178   1.04620603   1.68729435
H    2.72093040   0.97204433   1.64553436
H    1.60198082   1.57668077   2.46666884
O   -1.76749797  -1.04546265  -1.68771734
H   -1.58162112  -1.51506679  -2.50083086
H   -2.72270527  -1.04098716  -1.62614768
K   -0.02100545   0.00697061   0.01740443
