7
Energy:   -130.71628249
O    0.25588313  -1.31359100  -1.44653778
H    1.02425114  -1.32631425  -2.01722207
H   -0.47996701  -1.15666604  -2.03825644
O   -0.39711269   1.26136258   1.47732684
H   -0.48566480   1.89614672   2.18826949
H   -0.53555867   1.77291148   0.68021814
K    0.78429426  -1.24682510   1.28524465
