7
Energy:   -129.87771027
O   -0.90718749  -1.23640098  -1.84136422
H   -1.69241960  -0.89247369  -2.26722383
H   -0.28948637  -1.38144545  -2.55805054
O    0.86969477   1.17789267   1.94350729
H    1.36427655   1.58747240   2.65334189
H    0.61216227   1.90663036   1.37883904
K    0.07155339  -1.27434476   0.71648392
