7
Energy:   -132.35489415
O    0.43423350   1.56207108   1.28964865
H    0.99186514   1.97997523   1.94587645
H   -0.37317098   1.35252037   1.75913598
O   -0.39301733  -1.59647264  -1.28290031
H   -1.32948701  -1.66234085  -1.09603731
H   -0.13767039  -2.48114879  -1.54439198
K    0.88519677   0.97480655  -1.21263158
