7
Energy:   -130.37820413
O    1.10975470  -0.16429874  -2.61645138
H    1.23017014   0.58054755  -3.20546409
H    0.97039949  -0.91088574  -3.19904887
O   -0.99006146   0.15633111   2.62031039
H   -1.52116916   0.92360493   2.83349421
H   -0.90990487  -0.31757222   3.44809200
K    0.05126961  -0.29709138   0.13193284
