7
Energy:   -130.52591352
O   -1.14656722  -1.31212018  -1.51436001
H   -1.77556812  -1.67552855  -0.89104301
H   -1.18920574  -1.89991418  -2.26862258
O    0.99677990   1.36938567   1.55054994
H    1.03602773   0.67933844   2.21276311
H    1.52793811   2.07908254   1.91170525
K    0.71334174   0.82174076  -1.15142354
