7
Energy:   -130.54998204
O   -1.43092113  -1.07949506  -0.71488768
H   -2.20111688  -1.19712706  -1.27093898
H   -0.68862798  -1.14904431  -1.31521728
O    1.41673868   1.00803947   0.68386586
H    1.44409818   1.95607918   0.55462187
H    2.29848920   0.70985404   0.46063208
K   -0.93728281  -0.23607842   1.82609805
