7
Energy:   -134.99574731
O    2.31724031   0.84875081  -0.49302988
H    2.27373980   1.80456035  -0.52073701
H    3.24293173   0.65481611  -0.34566448
O   -2.34535028  -0.83578782   0.46237767
H   -2.98004512  -0.17595273   0.18307145
H   -2.85188506  -1.44269409   1.00211756
K    0.40463868  -0.97096034  -0.30613945
