7
Energy:   -129.87113134
O    1.25839775   0.49914945   1.70872336
H    1.25722052   1.07316640   2.47470966
H    2.18460106   0.32672363   1.53946438
O   -1.29250444  -0.41803931  -1.77579626
H   -1.53423181  -0.92405279  -2.55152178
H   -0.93320981   0.39800783  -2.12394317
K   -1.03963109  -1.12716190   0.86291763
