7
Energy:   -130.87350674
O    1.70340998   0.85064331  -1.43337163
H    2.27496136   1.29921157  -2.05654687
H    2.23787430   0.75222473  -0.64540366
O   -1.69513599  -0.74531638   1.40603141
H   -2.06517615  -0.02699478   1.91917487
H   -2.03766668  -1.53740350   1.82016010
K   -0.47690651  -0.73307240  -1.12250148
