7
Energy:   -128.50375983
O   -0.97197147  -1.47959898   2.23492191
H   -1.71130315  -2.04316875   2.00686571
H   -0.62961674  -1.85027160   3.04832642
O    0.98541683   1.55856730  -2.20143054
H    0.90180903   2.44453940  -2.55398552
H    1.50325907   1.08818358  -2.85473783
K   -0.09580835   0.26917470   0.34037934
