7
Energy:   -127.75901819
O   -1.66215382   1.86046028  -1.22064856
H   -2.43095216   2.29211346  -0.84801403
H   -1.35077618   2.46466772  -1.89459900
O    1.60563744  -1.98772631   1.11550645
H    1.86497105  -2.83873981   1.46871169
H    2.34404651  -1.41121411   1.31202000
K   -0.38342419  -0.34975838   0.14036699
