7
Energy:   -128.01744761
O   -1.07790375   1.00755683  -1.31866531
H   -1.80355235   1.11318608  -1.93389570
H   -0.41898508   0.51417922  -1.80716973
O    1.06821457  -1.00265913   1.35589522
H    0.75605582  -1.90613117   1.30562570
H    2.01815474  -1.07129645   1.26032092
K   -0.60539625   1.51434510   1.26062013
