7
Energy:   -129.90527452
O    1.40280329   1.55684429   0.99490593
H    1.09206839   2.44776828   1.15593421
H    1.87435366   1.31917229   1.79326933
O   -1.48218439  -1.53345622  -1.09350927
H   -1.60106103  -2.46021387  -1.30140456
H   -2.10392047  -1.36464364  -0.38556971
K    0.97154270   0.02454279  -1.25184799
