7
Energy:   -128.72501587
O    1.63075336  -1.12045634  -0.69234622
H    1.09855599  -1.90318220  -0.54973475
H    1.95859206  -1.21286644  -1.58689304
O   -1.58227737   1.08413692   0.73075427
H   -2.10784721   1.03940805   1.52950800
H   -2.21471537   0.97343071   0.02082599
K    1.34286189   1.30777425   0.59436378
