7
Energy:   -129.23945956
O   -0.63948854   1.54422703   1.10290114
H   -0.49418195   1.85956182   0.21089115
H   -1.02945587   2.28919855   1.56025741
O    0.61520989  -1.56394645  -1.06922364
H   -0.01551961  -1.32096416  -1.74699332
H    1.42392698  -1.74556800  -1.54799511
K    0.17232273  -1.18637628   1.66017701
