7
Energy:   -131.23728467
O    1.22915653  -1.18113205   1.83764369
H    1.39017612  -2.09791938   1.61447214
H    2.06502973  -0.86787994   2.18321705
O   -1.19076772   1.20357890  -1.76795262
H   -1.84226520   1.79245406  -2.14875300
H   -0.73607511   0.82874957  -2.52226652
K   -1.05606406   0.34956133   0.86358760
