7
Energy:   -127.75608980
O    0.56430911  -1.01020544   1.68129975
H    1.41554586  -1.37704463   1.92016548
H   -0.05114209  -1.73323293   1.80247286
O   -0.34690552   1.07155278  -1.74429504
H   -0.77360773   1.65689008  -2.37002447
H   -0.32058010   0.22386378  -2.18809924
K   -0.68395346   1.27992928   1.05229985
