7
Energy:   -129.75184587
O   -0.25973495   0.22794754  -2.58234332
H    0.45451457   0.85838297  -2.67524454
H   -0.90543817   0.49895455  -3.23491852
O    0.31356734  -0.23892476   2.49410638
H    1.05559864  -0.75887793   2.80276494
H   -0.19962473  -0.06155405   3.28239908
K   -0.55078403  -0.58649191  -0.04352011
