7
Energy:   -128.31471859
O   -0.81111891   1.71348974  -0.00023932
H   -1.36005857   2.45945183  -0.24197812
H    0.06973726   2.07953826   0.07933911
O    0.79961814  -1.64637013   0.16230539
H    0.99723768  -2.04392957   1.01031769
H    1.58239632  -1.80486251  -0.36530272
K   -1.43430321  -0.89560667  -0.82676522
