7
Energy:   -129.34141122
O   -0.44381367  -2.69984189  -0.16926863
H    0.32502314  -3.25912609  -0.05825962
H   -0.94406135  -3.11611223  -0.87119677
O    0.43858460   2.69215233   0.25460403
H   -0.00656346   3.50071495   0.50818151
H    1.17756252   2.98255034  -0.28001029
K   -0.61349913  -0.10844533   0.64223526
