7
Energy:   -133.24617059
O   -1.27027170  -1.47819465  -1.21740211
H   -0.54455235  -1.54679146  -1.83777116
H   -2.03200185  -1.79436057  -1.70323967
O    1.22059688   1.50842897   1.27936236
H    1.43823384   2.04416326   0.51656831
H    1.90544947   1.70952404   1.91714724
K   -0.77869921  -0.51807267   1.14098525
