7
Energy:   -137.50033358
O   -1.24889778  -1.81099990  -1.13233900
H   -1.87201887  -2.11828894  -1.79076545
H   -0.99379748  -2.60116202  -0.65610428
O    1.26969134   1.83597942   1.10634030
H    1.07605330   2.58077127   1.67556894
H    2.05250002   1.43910686   1.48835417
K   -0.33263395   0.74556291  -0.76350377
