7
Energy:   -128.08174029
O   -1.58021523  -1.31153802  -1.43348209
H   -1.51363187  -0.66564716  -2.13677684
H   -1.88319315  -2.10890092  -1.86781910
O    1.59331285   1.29981777   1.33195616
H    1.86597263   2.20473086   1.18023012
H    2.05766209   1.03943030   2.12744971
K   -0.61708963  -0.50928939   0.96318856
