7
Energy:   -129.42103138
O    1.27360168   1.88972416  -0.18652411
H    1.33620507   2.36733553  -1.01368796
H    1.14959111   2.57046599   0.47487123
O   -1.27079055  -1.99067427   0.25821211
H   -1.96521782  -2.09951489  -0.39152348
H   -1.72761028  -1.98682500   1.09936178
K    1.35664404  -0.78440443  -0.31568051
