7
Energy:   -132.58365370
O    0.76643917  -1.44577854  -1.10512671
H    1.65423534  -1.11138695  -1.23253185
H    0.87226836  -2.39596913  -1.05854488
O   -0.79591221   1.45229744   1.10503885
H   -1.05314609   2.24658612   1.57319275
H    0.02929350   1.18989614   1.51297628
K   -1.64360831   0.06857772  -0.89672049
