7
Energy:   -128.07187664
O    1.49622606  -0.83538435   1.26718836
H    1.47927500   0.04045430   1.65300071
H    1.93442196  -1.37797889   1.92278532
O   -1.36256315   0.91895355  -1.29672724
H   -2.31831410   0.94198630  -1.24938304
H   -1.13084085   1.67360690  -1.83805426
K   -0.19310784  -1.58741949  -0.49934816
