7
Energy:   -131.81805078
O   -1.19946848   0.41159443   2.50830992
H   -1.62670186  -0.23132401   3.07431289
H   -0.76689561   1.01410906   3.11336254
O    1.07350480  -0.39024081  -2.50512659
H    1.74161893   0.13532583  -2.94516644
H    0.94581025  -1.14555242  -3.07908680
K   -0.11176808   0.21931660  -0.18989385
