22
Energy:   -571.71866396
O   -0.78841822   1.83659455   2.10867290
H   -1.35377975   2.26401147   2.75203359
H   -1.21044255   0.99407415   1.94048638
O   -1.99729672  -1.38994607  -1.43074031
H   -2.88091581  -1.08935014  -1.21839333
H   -2.10721530  -1.91922705  -2.22068423
O    0.81709334  -2.15028245  -1.81621061
H    0.93982286  -3.09947128  -1.83069812
H    1.40216980  -1.82219743  -2.49905583
O    1.65066950  -0.51713123   0.53935855
H    1.77613203   0.42855673   0.61787784
H    2.53321380  -0.88235126   0.60230080
O    1.41501252   2.22491346   0.56652746
H    1.90777630   3.02748539   0.73768238
H    0.68749446   2.25284721   1.18795246
O   -0.08547097   0.96687260  -1.36838510
H   -0.50250014   1.52043067  -2.02860626
H    0.43992247   1.57201321  -0.84493651
O   -0.95316724  -0.93887878   1.30167456
H   -1.44805793  -1.60624830   1.77699865
H   -0.10021879  -0.91812769   1.73558721
Li  -0.19596477  -0.87098241  -0.62641489
