22
Energy:   -591.42791066
O    1.58756387   1.31728954   0.73307739
H    1.36623576   2.24416302   0.82336174
H    2.54409059   1.30097356   0.70110443
O   -1.36761908   1.54532664   0.73114685
H   -2.31528294   1.67594722   0.69793060
H   -1.00683124   2.42728113   0.82181255
O   -0.27096043  -3.50833522   0.39447981
H    0.43894386  -4.14771792   0.33567917
H   -1.07046988  -4.03125172   0.33469001
O   -0.07875868  -1.02878374  -0.95169303
H   -0.15106802  -1.96432022  -0.76255101
H   -0.07413861  -0.97683075  -1.90747093
O   -0.06962371  -0.93293431  -3.67808396
H   -0.82438837  -0.88027465  -4.26441929
H    0.68502439  -0.99675387  -4.26346005
O    0.29222380   3.79515516   0.97088513
H    0.34342820   4.45285451   0.27731357
H    0.33063124   4.29971894   1.78339489
O   -0.09608560  -1.22830121   2.00122035
H   -0.16378734  -2.10885067   1.63205782
H   -0.10715962  -1.36380136   2.94871648
Li   0.01106791   0.14845403   0.59900983
