22
Energy:   -575.53251022
O    0.10621066   0.46312988   2.94230756
H    1.01146775   0.18953131   2.79437087
H    0.09639634   0.78236153   3.84465266
O   -1.62386088  -1.61184624  -1.67500216
H   -2.44301978  -1.67656757  -2.16594175
H   -1.43823660  -2.50924671  -1.39851005
O    1.21635545  -0.38612376  -0.30152999
H    1.66973263  -0.40642871   0.54124441
H    1.91839830  -0.39874939  -0.95207458
O    2.60966237  -0.41527901   2.13043717
H    3.35789271   0.16649454   2.26431300
H    2.89456790  -1.25791992   2.48401459
O   -1.41669543   1.87774847  -1.17454815
H   -1.80757683   1.98233391  -0.30707742
H   -1.67782853   2.66522135  -1.65196602
O    0.28367984   0.23845556  -2.95090987
H    0.49618232   1.05752487  -3.39834702
H    0.21447747  -0.40788048  -3.65354249
O   -1.51792511  -0.04685302   0.84552060
H   -0.96674362   0.14122896   1.60516261
H   -2.26135709  -0.53254462   1.20279418
Li  -0.60316379   0.02289991  -1.04345979
