22
Energy:   -594.50162904
O    0.30010407   2.29834306   0.41466639
H    0.58518546   1.73185417   1.13163975
H    0.29015232   3.17757908   0.79292137
O   -0.33345594  -1.66021396  -2.97267055
H   -1.22468212  -1.65592789  -3.32185440
H    0.13926898  -2.27934212  -3.52894685
O    1.37140783  -1.33179104  -0.09189744
H    2.12824519  -1.90902235   0.00926121
H    1.29862019  -0.88176413   0.74977327
O    0.78465181   0.16753599   2.16388378
H    1.20116350   0.16051008   3.02568451
H   -0.10310346  -0.15270939   2.32377536
O    1.11754830   1.15519965  -1.97822293
H    1.55654043   1.65769581  -2.66452852
H    1.00833145   1.77660580  -1.25839107
O   -1.27395033   0.13419517  -0.42383758
H   -1.06675269   1.03856348  -0.18842529
H   -1.62359231  -0.24909759   0.38056840
O   -1.84854659  -0.75572114   2.17414098
H   -2.55310985  -0.27949600   2.61349516
H   -2.03248119  -1.67743099   2.35538903
Li   0.24156522  -0.52981285  -1.48510792
