22
Energy:   -571.92812782
O   -1.22963720  -0.98603131   2.43436760
H   -1.86524748  -1.61944796   2.76755640
H   -1.03035968  -0.42793211   3.18606275
O   -1.75179325  -1.96484269  -0.39087917
H   -2.19653606  -1.45137101  -1.06525482
H   -2.29359252  -2.74730375  -0.28870244
O    1.02457211  -1.60451154  -0.23679465
H    0.53271145  -2.29491030  -0.68137816
H    1.73896049  -2.06454696   0.20394167
O    0.82931736   0.86243207   1.39539455
H    1.53861592   1.02866515   2.01627616
H    0.87565028   1.59176919   0.77720973
O    0.66452303   2.53708002  -0.79419581
H    0.89551842   3.40894980  -1.11468928
H    1.18430797   1.93864459  -1.33078737
O    1.92301027   0.45416606  -1.98168645
H    2.53654038   0.20248591  -2.67195433
H    1.78242829  -0.34935972  -1.48087223
O   -1.49745556   0.89981900  -0.38759557
H   -2.32241077   1.37131032  -0.27193795
H   -0.87665280   1.56931447  -0.67501793
Li  -0.49859645  -0.52177367   0.64280173
