22
Energy:   -574.92034962
O    2.69413542  -2.77779632   0.15267005
H    3.64334544  -2.66206880   0.19555731
H    2.53893532  -3.63599789   0.54717587
O    1.08425487  -1.79587939  -1.81968118
H    1.66498972  -2.15017512  -1.14629168
H    1.14534445  -2.42070353  -2.54224238
O    0.76514457  -0.27381253   0.84733274
H    1.51461813  -0.61672307   1.33409099
H    0.49194896   0.49951946   1.34084429
O   -0.29436049   2.09768398   1.69662211
H   -1.23813120   1.95088517   1.75969993
H   -0.17548613   3.01071446   1.95830146
O   -1.79277354  -0.14444794  -1.01009825
H   -2.39049749  -0.18671569  -1.75653737
H   -2.35358591   0.07338174  -0.26560408
O   -2.98629638   1.19133382   1.55791118
H   -3.16858196   0.91731025   2.45675205
H   -3.79475450   1.61323855   1.26700966
O    0.72509189   1.51201524  -1.73763066
H    0.54531137   2.30304399  -1.22951223
H    1.12245129   1.83213365  -2.54748346
Li   0.17180412  -0.26248299  -1.00171751
