22
Energy:   -581.53406077
O    2.31990931   2.77665856  -1.51065074
H    2.77556328   2.59938648  -2.33356380
H    2.77156550   3.53741888  -1.14529850
O   -0.17327838   1.89877748  -0.86513969
H    0.70794458   2.15573631  -1.13652523
H   -0.68252394   2.70824972  -0.90582753
O   -2.07591746  -1.11933667   0.80252415
H   -2.15384523  -1.00867838  -0.14505901
H   -2.97843103  -1.20824821   1.10878522
O   -1.51101335  -0.59278193  -1.89826771
H   -1.82125522  -0.78243124  -2.78371391
H   -1.25796693   0.32997345  -1.92513525
O    0.24258728  -2.45114937   2.78711484
H    1.14804089  -2.75186466   2.86428943
H   -0.24658919  -3.00371695   3.39671085
O    0.62617320  -1.65340201  -0.40131682
H    0.08865392  -1.33197274  -1.12518704
H    1.42811553  -1.96755488  -0.81896300
O    0.30787277   0.67984780   1.57841546
H    0.21224343   1.19864114   0.77970378
H    0.59259115   1.30940430   2.24085482
Li  -0.19905119  -1.20811438   1.31663422
