22
Energy:   -588.40535951
O   -2.34519252   1.54894784   2.07640911
H   -2.40681533   1.66539408   3.02449916
H   -2.96534953   2.18275774   1.71596197
O   -0.70555085  -0.87632077  -2.05771946
H   -1.46576174  -1.12866745  -2.58177328
H   -0.03215146  -0.65721708  -2.70173706
O    1.19759610  -1.55915307   0.50164628
H    1.66319634  -2.39494837   0.47173842
H    1.79780064  -0.96612160   0.95364189
O    2.51686432   0.60862027   1.69370220
H    2.74502243   0.62215001   2.62321426
H    3.26586678   1.01402972   1.25681510
O   -0.00417052   1.15857474   0.54355770
H   -0.65777457   1.53478586   1.13304798
H    0.82299545   1.24154329   1.01805167
O    1.19027569  -0.24400720  -3.89874936
H    1.70996975  -0.85054705  -4.42625229
H    1.28812008   0.60072132  -4.33817177
O   -2.07543796  -0.95513351   0.84892437
H   -2.34198317  -0.18079449   1.34448927
H   -2.71137529  -1.62736232   1.09371812
Li  -0.40940587  -0.63546209  -0.15277707
