22
Energy:   -588.55954821
O   -1.15240751   1.51522546   2.41150798
H   -1.11589566   1.23877759   3.32719095
H   -1.53836862   2.39068813   2.44033476
O   -1.67294810  -1.59486437  -2.51429427
H   -2.10889792  -2.44692291  -2.50103369
H   -1.80617866  -1.27096087  -3.40511860
O    2.82926093  -0.54284586   1.06767641
H    3.05352503  -0.91631907   1.91999984
H    3.67161579  -0.30229519   0.68192322
O    0.85842046  -1.66322452  -0.55892778
H    1.18550239  -2.52099443  -0.82999980
H    1.54751499  -1.31059183   0.00412706
O    0.95362018   1.46460272   0.58246584
H    1.65899086   0.90086148   0.90008175
H    0.37077732   1.56672060   1.33486067
O   -0.06694224   1.10023322  -1.88340904
H    0.04749196   1.76502692  -2.56251582
H    0.37834014   1.46115525  -1.11679914
O   -1.90285292  -0.23593368   0.37298558
H   -1.67250865   0.35381213   1.09088059
H   -2.82399381  -0.44848287   0.52316599
Li  -0.68814924  -0.59474875  -1.12808092
