22
Energy:   -587.22938310
O   -2.00855295  -0.21386492  -4.05776442
H   -2.94299292  -0.38746067  -4.17142319
H   -1.71228236   0.07890012  -4.91959051
O   -0.14145236  -1.70745396  -1.91546117
H    0.25946759  -2.56337571  -1.76415682
H   -0.64959768  -1.81911967  -2.71892302
O    1.56889768   0.49927392  -0.10031375
H    1.50945004   0.73608882   0.82522206
H    2.45564972   0.75285446  -0.35643791
O   -1.10004454   1.25354657  -1.89519437
H   -1.35840984   2.17515955  -1.90562231
H   -1.46039575   0.89409898  -2.70585847
O   -1.11896264  -0.28729118   0.89132245
H   -1.96473076  -0.54149154   1.26049763
H   -0.62373488   0.05167540   1.63703216
O    2.00556028  -0.54486508   4.40526464
H    2.94822506  -0.63001034   4.54797151
H    1.60867685  -0.93923641   5.18191555
O    0.83292195   0.98955291   2.50032939
H    1.22695305   0.42508149   3.16541837
H    0.79599626   1.85374107   2.91026496
Li  -0.17099846  -0.07866934  -0.81292450
