7
Energy:   -402.65570734
O   -1.47461244   0.41457101   0.09341133
H   -1.76444123   0.96404894   0.82163185
H   -1.99480648  -0.38487353   0.17414809
O    1.37377219  -0.30525604  -0.18434163
H    2.19723394   0.12932960   0.03764465
H    1.63399430  -1.05003747  -0.72639046
H    0.09466806   0.19461006  -0.18775794
