7
Energy:   -401.35046231
O   -0.46626217   1.10388649  -0.67394294
H    0.31775098   1.39932532  -1.13683723
H   -1.14112237   1.73811393  -0.91591631
O    0.21104100  -1.29154959   0.78234446
H    0.95658745  -1.71584683   0.35765141
H    0.56773777  -0.93977513   1.59797550
H   -0.34558480  -0.21621580  -0.07948963
