7
Energy:   -394.15183445
O   -0.14455978  -1.51354930  -0.10217294
H   -1.00676652  -1.92154896  -0.02237536
H    0.31446855  -2.04739558  -0.75065809
O    0.22737721   1.48818363   0.27985273
H   -0.18269102   1.87041449  -0.49601806
H    0.50930041   2.24186892   0.79822484
H    0.26806953  -0.11745084   0.22122890
