7
Energy:   -400.72974788
O    0.24971225  -0.65763144  -1.17217905
H   -0.37642791  -1.08622251  -1.75569428
H    1.09616289  -1.03737544  -1.40786456
O   -0.39680782   0.89407395   1.11383244
H    0.49719194   1.20807817   1.24947028
H   -0.71684827   0.69374242   1.99341941
H   -0.30756363  -0.16218250   0.01226892
