7
Energy:   -400.03220472
O   -0.91895366   0.14139232  -1.06708235
H   -1.63565536  -0.36733205  -1.44625255
H   -1.34822891   0.89274566  -0.65790909
O    1.09813457  -0.29658742   0.79271290
H    0.71344360  -0.68363483   1.57912183
H    1.73032306   0.34132930   1.12381985
H    0.29677199   0.06410839  -0.19693741
