7
Energy:   -424.37828379
O    0.00569451  -0.63005073  -1.22382176
H   -0.57782366  -1.32016365  -1.53923031
H    0.81043250  -0.74683297  -1.72878763
O   -0.09455908   0.69653930   1.21409812
H   -0.07957715   1.62519983   1.44560839
H    0.27111573   0.25254168   1.97919935
H   -0.32346575   0.09752758  -0.15990301
