7
Energy:   -408.62997534
O   -0.42515494  -1.11301068  -0.68126400
H    0.43107913  -1.43820192  -0.95937499
H   -0.79761298  -1.82828645  -0.16562127
O    0.21465703   1.17461429   0.52560922
H    0.13438011   1.73031017   1.30084439
H    1.09445469   1.35230772   0.19302393
H   -0.60558258   0.09997291  -0.14463398
