7
Energy:   -422.05133782
O   -0.46912254  -0.84113936   1.02861289
H   -0.43728646  -1.79020980   1.14896075
H   -0.28197113  -0.48279676   1.89625152
O    0.46738660   0.85344895  -1.00557749
H    0.72316343   0.49997063  -1.85755351
H    0.01670775   1.67252701  -1.21108067
H   -0.02022493   0.09190766  -0.01375297
