7
Energy:   -407.69156644
O   -0.31937439   0.53579470  -1.19786056
H   -1.17507579   0.25013245  -1.51786686
H    0.27291073   0.39272316  -1.93607511
O    0.20205706  -0.29300616   1.37926591
H    0.98968662   0.01514110   1.82750333
H    0.36841564  -1.22072145   1.21222994
H   -0.30970407   0.21134293   0.15086585
