7
Energy:   -399.54082235
O    0.83311412  -0.58347986  -1.12137715
H    1.53628219  -1.23222653  -1.09114034
H    0.73212516  -0.38220997  -2.05171231
O   -0.90291906   0.63061528   1.10018995
H   -0.67460784   1.39073120   1.63528771
H   -1.42729223   0.07795198   1.67969656
H   -0.06608409   0.08220848  -0.15721658
