7
Energy:   -416.11554987
O    1.37969540  -0.43074820  -0.12941626
H    2.16078497  -0.39787007   0.42289702
H    1.63343607  -0.97951630  -0.87150864
O   -1.38154477   0.41800527   0.15027360
H   -1.74944295   0.95341660   0.85327963
H   -2.13746055   0.16590074  -0.38007203
H    0.10777219   0.31332836  -0.06411926
