7
Energy:   -396.96298408
O   -0.08397010  -1.11106408  -0.87667401
H    0.65354953  -1.20780788  -1.47911677
H   -0.74471506  -0.63593563  -1.38055981
O   -0.02264088   0.77931399   1.12690359
H   -0.44614508   1.62608812   0.98601491
H    0.89842428   0.99339231   1.27536669
H   -0.22141360  -0.29647647   0.23848961
