7
Energy:   -430.98455193
O    0.17551299   0.61793602  -1.21466819
H    0.51755378   0.02984111  -1.88800638
H    0.29337398   1.49494776  -1.57962168
O   -0.27986498  -0.63674280   1.19050596
H    0.17605743  -0.12758363   1.86067277
H   -0.54823123  -1.43843670   1.63939156
H   -0.31293242   0.07930816   0.00554985
