7
Energy:   -400.73378976
O   -0.32074563  -0.50838860  -1.11659010
H    0.52441044  -0.71251510  -1.51693426
H   -0.89270148  -0.30151918  -1.85571350
O    0.22841684   0.44217328   1.14089567
H   -0.02795530   0.50364184   2.06107326
H    0.93610022   1.07965270   1.04583750
H   -0.44794252  -0.52665452   0.25736622
