7
Energy:   -392.35453459
O   -1.33317209  -0.03798176  -0.51003937
H   -2.12058995  -0.38966534  -0.92539900
H   -1.23012191   0.83416635  -0.89078887
O    1.29505703  -0.05026727   0.55150459
H    2.12793288   0.16727605   0.13290624
H    1.45682704   0.07397895   1.48671857
H   -0.19753730  -0.61963687   0.14941117
