7
Energy:   -405.71541151
O    0.06263843  -0.57064291  -1.23408628
H    0.75388766  -0.53319563  -1.89514910
H   -0.68612681  -0.95352099  -1.69123707
O   -0.06098348   0.53409430   1.25623187
H    0.64904493   0.28278120   1.84693758
H   -0.77834675   0.78711707   1.83726653
H    0.06653277   0.53391602  -0.14896118
