7
Energy:   -395.87478423
O    0.31784605  -0.71927531   1.14764975
H    1.06247438  -1.05828710   1.64447116
H    0.02446759   0.04372732   1.64563361
O   -0.28280623   0.49040831  -1.29280172
H   -1.23086674   0.50474019  -1.16162359
H   -0.08761089   1.32232249  -1.72413619
H    0.20006642  -0.51737456  -0.20296449
