7
Energy:   -398.60139011
O    0.10168916   0.74321073  -1.23871754
H    0.93469803   1.17443155  -1.04799081
H   -0.45920293   1.44246604  -1.57438692
O   -0.12929928  -0.88784993   1.03701776
H   -0.96903379  -1.26798443   1.29504017
H    0.33458440  -0.74795779   1.86253213
H    0.22745374  -0.42563762  -0.25194639
