7
Energy:   -395.59400384
O    0.28257345  -0.46118310  -1.22862542
H   -0.33858671  -0.92716988  -1.78831124
H    0.96028006  -1.10789752  -1.03188687
O   -0.23398646   0.60027503   1.10768274
H    0.35438183   0.99877005   1.74897543
H   -0.93734794   0.21791379   1.63238681
H   -0.12841934   0.68057357  -0.42207879
