7
Energy:   -397.93659177
O    0.77715140  -0.39806629   1.07736881
H    0.24396928  -0.67701259   1.82177303
H    1.45276484   0.16038811   1.46195561
O   -0.76401052   0.19247414  -1.17519230
H   -0.29281523   0.51970930  -1.94143246
H   -1.41969005   0.86516100  -0.99132117
H   -0.00512731  -0.62084402  -0.22530223
