64
Energy:  -1784.41681910
O    0.97906641  -1.92153888  -1.76554923
H    0.64218852  -1.30596725  -1.11453717
H    0.34138987  -2.63535850  -1.77342586
O    1.65578763  -0.54048130   2.47111576
H    1.03685285  -1.17031444   2.84052314
H    1.26543373  -0.28179754   1.63628740
O    2.76589368  -3.30242420  -0.20587406
H    3.22765824  -2.61984567   0.28104675
H    2.18036110  -2.82410038  -0.79289176
O   -2.14257891   2.43746450   0.54680436
H   -2.03424235   2.27199004   1.48334760
H   -1.59152004   1.78032799   0.12167194
O    0.55783404  -0.59580368  -4.11387695
H    0.73995860   0.27540803  -3.76166586
H    0.67040450  -1.18467520  -3.36769329
O   -1.65445704   1.82592827   3.15977212
H   -0.71194435   1.90455781   3.30714603
H   -1.78724900   0.90319285   2.94261440
O    0.67848215   3.03413877   0.85148173
H   -0.27450658   3.12382011   0.85022459
H    0.83545842   2.13664956   0.55804789
O   -1.81854284   4.72773349  -1.06206009
H   -0.92578598   4.55977872  -1.36373580
H   -2.05470704   3.94527059  -0.56385316
O   -2.50534837  -1.62330744  -1.05460366
H   -1.74367974  -1.29239267  -0.57859087
H   -2.46167071  -1.19108807  -1.90754593
O    1.14048107   1.57494978  -2.57580698
H    1.99538014   1.24501246  -2.29918307
H    0.53602319   1.27368527  -1.89749864
O   -1.97853304  -0.07087989  -3.22518488
H   -1.63816301   0.33022086  -2.42549852
H   -1.19785704  -0.32825045  -3.71563084
O    3.90429081  -1.15981986   1.00764006
H    3.74660867  -0.65738521   0.20831058
H    3.17524007  -0.92956661   1.58357435
O    3.09936309   0.02878876  -1.36349804
H    2.76149373  -0.73790171  -1.82638233
H    2.39329651   0.28006139  -0.76804536
O    0.83032472   4.12239180  -1.62851753
H    0.92638100   3.30591377  -2.11879161
H    0.89968663   3.86061134  -0.71042616
O    0.34309822  -3.44645733   1.01644697
H    1.25605847  -3.51407556   0.73687014
H    0.08789660  -2.55250158   0.78852792
O   -0.93341335  -3.83755345  -1.37808591
H   -1.58459983  -3.13924853  -1.31057098
H   -0.53919585  -3.88311566  -0.50702420
O   -0.17250029  -2.37267807   3.46529375
H   -0.92286785  -1.83690356   3.20814388
H    0.02371115  -2.89872096   2.69004424
O    1.06655273   1.99603360   3.33722473
H    1.03999072   2.44571973   2.49264869
H    1.31758347   1.09753981   3.12292511
O   -2.06524042  -0.71825909   2.30744018
H   -1.39385625  -0.72082760   1.62518762
H   -2.87645265  -0.50761544   1.84505959
O   -3.91894997   0.19187632   0.49793709
H   -3.49098527  -0.42501811  -0.09579629
H   -3.41197766   0.99917717   0.41147170
C   -0.19674889   0.26608671   0.18564763
O   -0.79511859   0.67120758  -0.97830648
O    1.14289068   0.54828500   0.13246191
O   -0.37375396  -1.08349508   0.34400922
