64
Energy:  -1798.03968743
O    0.35542063  -1.53192812  -2.06294874
H    0.19806483  -0.99977689  -1.28302178
H   -0.28297684  -2.24249115  -2.00146132
O    2.10444021  -0.91161072   1.62118191
H    1.62258388  -1.52396276   2.17712372
H    1.43831305  -0.53343704   1.04716873
O    2.58158052  -2.39175386  -0.66360953
H    2.55564167  -1.83083766   0.11158853
H    1.88173883  -2.05795622  -1.22488718
O   -2.41721443   1.94635395   1.70899664
H   -1.86572434   1.84601008   2.48489718
H   -1.96365224   1.45157976   1.02656592
O   -0.07463897   0.53117185  -3.75103254
H    0.04612393  -0.21245417  -3.16055095
H   -0.19915794   1.28141561  -3.16977427
O   -0.80929165   1.31149222   3.84644892
H    0.11955716   1.38959475   3.62879841
H   -1.04796553   0.42789187   3.56623998
O    1.20970467   2.81683323   0.84001535
H    0.38490140   3.29839822   0.77656001
H    1.00423724   1.94382531   0.50554239
O   -1.21018604   3.97653896   0.28124278
H   -1.05653488   3.55037883  -0.56197174
H   -1.71710680   3.33870100   0.78366285
O   -2.87726838  -1.61383228  -0.51467939
H   -2.04749741  -1.28570420  -0.16820579
H   -3.01823517  -1.11063137  -1.31664513
O   -0.29036286   2.58592759  -1.95728618
H    0.60163105   2.91894113  -1.85889561
H   -0.34703229   1.86322743  -1.33220627
O   -2.64651175   0.16676731  -2.62080176
H   -2.24038505   0.45970575  -1.80503217
H   -1.93874075   0.19430561  -3.26464468
O    4.34420101  -1.10243691  -2.34692409
H    3.76791375  -0.34411094  -2.44214257
H    3.88299698  -1.67941009  -1.73813460
O    2.38277724   0.85027426  -2.38601979
H    1.74569687   0.72553875  -3.08944107
H    1.89847455   0.64936410  -1.58519654
O    2.28349520   3.43699423  -1.57500664
H    2.48959078   2.55950447  -1.89713734
H    2.04680095   3.30611625  -0.65681350
O    0.38780922  -3.50759457   0.49092456
H    1.25175603  -3.37863349   0.09952094
H   -0.00232698  -2.63361659   0.50463925
O   -1.38311052  -3.62142364  -1.58030192
H   -2.00965949  -2.98638079  -1.23333100
H   -0.76909019  -3.77023188  -0.86122822
O    0.65888839  -2.77236279   3.09338315
H   -0.13194117  -2.23853603   3.16986487
H    0.57765469  -3.20095433   2.24136072
O    1.83029763   1.41403210   3.08284936
H    1.66081131   2.01878503   2.36050586
H    1.99875252   0.57326806   2.65744295
O   -1.53529029  -1.10389115   2.83342699
H   -1.10604093  -0.97875012   1.98707213
H   -2.46655246  -0.97846638   2.65107776
O   -3.95058873  -0.37331833   1.74655638
H   -3.66272388  -0.80075164   0.93991740
H   -3.53641270   0.48928802   1.72205445
C   -0.33711561   0.24114923   0.33107747
O   -1.37876646   0.75920672  -0.39248201
O    0.84119064   0.49171032  -0.32154211
O   -0.50509288  -1.11191439   0.46812745
