64
Energy:  -1792.39626931
O    0.50317837  -1.82865930  -1.97248902
H    0.30731567  -1.17012860  -1.30600048
H   -0.17887715  -2.49124917  -1.86291358
O    1.88924710  -0.41464343   2.04350743
H    1.41913420  -1.08887942   2.53404952
H    1.34103162  -0.24984139   1.27634909
O    2.57024008  -3.20539491  -0.80881530
H    3.11394103  -2.54976749  -0.37203869
H    1.92279727  -2.69490883  -1.29508026
O   -2.55669032   2.02143681   0.71548760
H   -2.14818529   2.18739200   1.56508419
H   -1.95806301   1.41815600   0.27511338
O    1.29180799  -0.11743606  -3.93993560
H    0.95772934  -0.79436651  -3.35138784
H    0.86879774   0.68842371  -3.64348291
O   -1.32651520   2.03557381   3.17229808
H   -0.38053849   2.17140086   3.11834510
H   -1.43622483   1.08631161   3.11664811
O    1.06313541   2.96689250   0.32236854
H    0.27441241   3.37784187  -0.03156435
H    0.94009199   2.03167135   0.15972298
O   -1.20660063   3.78037178  -0.96686677
H   -0.84659814   3.20063798  -1.63808863
H   -1.74438392   3.20850976  -0.41914895
O   -2.86572307  -1.71313160  -0.39397914
H   -2.00827220  -1.36041959  -0.15606298
H   -3.19238540  -1.11619821  -1.06717607
O    0.22496666   2.06714424  -2.64481783
H    1.08367890   2.40551486  -2.39114391
H    0.00817757   1.42891004  -1.96519187
O   -3.59873546   0.41558223  -1.95770866
H   -3.96073175   0.98115920  -1.27556994
H   -2.65098570   0.46611882  -1.83341750
O    3.93972811  -1.16705881   0.35882542
H    3.74506825  -0.64804657  -0.42153712
H    3.27588253  -0.90166167   0.99530421
O    3.00731899   0.26597433  -1.81539685
H    2.63066427   0.04217443  -2.66644131
H    2.25765156   0.29320103  -1.22084719
O    2.68830645   2.96217765  -1.84409669
H    2.95582813   2.04314684  -1.85090682
H    2.23383552   3.07365195  -1.00907483
O    0.43108012  -3.37889926   0.84292757
H    1.25605787  -3.41829618   0.35909760
H    0.10800119  -2.49018599   0.69446687
O   -1.30847185  -3.79040645  -1.23934924
H   -1.95661241  -3.12697676  -1.00269187
H   -0.71055210  -3.81896533  -0.49241670
O    0.43199200  -2.35404951   3.37739030
H   -0.34854638  -1.80508225   3.30237940
H    0.45778187  -2.84782249   2.55778370
O    1.39193328   2.16813327   2.89535317
H    1.32550683   2.57149498   2.02983673
H    1.59804068   1.25050219   2.71729477
O   -1.64942366  -0.63081767   2.76884893
H   -1.17500871  -0.66082501   1.93802894
H   -2.57190322  -0.58778233   2.51703299
O   -4.03414774  -0.15749948   1.50054344
H   -3.69535285  -0.79226304   0.86925500
H   -3.59258181   0.66194051   1.27745270
C   -0.32900956   0.25610937   0.06517879
O   -1.14898245   0.50163579  -1.00454997
O    0.97654327   0.43472629  -0.30995664
O   -0.50970378  -1.03340718   0.49211775
