64
Energy:  -1782.95158675
O   -0.56562666  -1.29847656  -2.31821235
H   -0.30082645  -0.88528927  -1.49639183
H   -1.26089570  -1.90686813  -2.06782764
O    2.11655631  -1.00098356   2.18148149
H    1.54602515  -1.50975988   2.75756543
H    1.58187893  -0.82704198   1.40682268
O    1.90205110  -3.13986228  -0.44256382
H    2.78363804  -2.94263067  -0.12612107
H    1.43266303  -2.30805753  -0.37925871
O   -1.75172689   2.48924961   1.04336069
H   -1.25269218   1.81200688   0.58670055
H   -2.51685174   2.03061312   1.39044624
O    1.85638948  -2.40712477  -3.07023386
H    1.96630514  -2.84394208  -2.22563867
H    0.98615903  -2.01113457  -3.02416260
O   -0.21209920   2.39087204   3.31698557
H    0.67744805   2.19908081   3.02007875
H   -0.70962474   2.52881724   2.51096366
O    1.92543798   2.20571144  -0.31167862
H    1.14281619   1.65717851  -0.25832507
H    2.55171277   1.68231376  -0.81174520
O   -1.96461720   3.94469908  -1.30320156
H   -1.09728088   3.81989875  -1.68840857
H   -1.91018275   3.52049826  -0.44685910
O   -3.35032317  -0.42874083  -0.37069623
H   -2.47636093  -0.50497784   0.01220034
H   -3.24821468   0.20962151  -1.07659935
O   -2.49577103   1.40805259  -2.19820625
H   -2.48443275   2.34347583  -1.99550781
H   -1.72020537   1.05806869  -1.75975325
O    0.75924231   0.91692968  -3.54238956
H    1.49508622   0.69835654  -2.97055798
H    0.04549648   0.35515978  -3.24037414
O    4.06800119  -1.58071127   0.28120334
H    3.73043330  -1.04213655  -0.43449006
H    3.50068116  -1.37533788   1.02430603
O    2.72976473  -0.12526308  -1.81210562
H    2.63666856  -0.86236392  -2.41563466
H    2.02219143  -0.24317445  -1.17833216
O    0.53153617   3.42013443  -2.36448879
H    0.45647827   2.61829005  -2.88183177
H    1.00543371   3.15391506  -1.57659272
O   -0.53688626  -3.19317929   0.86771500
H   -0.64035882  -2.24551054   0.78140620
H    0.30884858  -3.38033704   0.46036206
O   -2.46714126  -2.93177395  -1.16034119
H   -2.88549958  -2.10805887  -0.90993827
H   -1.83885294  -3.10468771  -0.45920892
O    0.11509044  -2.40243632   3.44580770
H   -0.40808600  -1.60267699   3.49968979
H   -0.11625571  -2.78395173   2.59895659
O    2.28193558   1.74472327   2.38761269
H    2.22569993   0.78934921   2.40577318
H    2.18229438   1.97346808   1.46350269
O   -1.35623701  -0.08661094   3.20187552
H   -0.91757674   0.74999295   3.35648126
H   -1.18242037  -0.28217481   2.28112886
O   -3.69172798   0.84784560   2.04892775
H   -3.69070379   0.37959297   1.21408029
H   -2.96614206   0.46324043   2.54069576
C   -0.01944674   0.04181456   0.35391571
O   -0.39706241   0.92213232  -0.62557672
O    0.96390347  -0.78201945  -0.12714423
O   -1.10054622  -0.70985540   0.73338428
