64
Energy:  -1791.46848901
O   -0.21204108  -1.15069752  -2.55870239
H   -0.03115900  -0.73118424  -1.71755904
H   -0.73631181  -1.91981367  -2.33547069
O    2.00115642  -1.18111244   2.19946405
H    1.38747030  -1.75775360   2.65455323
H    1.54841227  -0.93832126   1.39180879
O    2.23176357  -2.93032839  -0.75475179
H    3.02796999  -2.76822736  -0.24877706
H    1.71421394  -2.13193842  -0.65012058
O   -1.97678768   2.11298789   1.10627817
H   -1.37905771   1.54595826   0.61901220
H   -2.74630127   1.56736631   1.26869056
O    2.42457294  -1.71138308  -3.21303187
H    2.51447432  -2.29533824  -2.45994093
H    1.51980375  -1.40190041  -3.17007790
O   -0.59664057   1.85927349   3.46469447
H    0.32295373   1.77445490   3.21293273
H   -1.05361812   2.04676982   2.64478685
O    1.96771727   2.22816851  -0.03641131
H    1.21455002   1.64181968  -0.10828606
H    2.67143735   1.77265208  -0.49848779
O   -1.91558501   4.43311031  -0.34098322
H   -0.97504189   4.53872692  -0.48400640
H   -1.98637793   3.67621763   0.24068136
O   -3.10251024  -0.69441459  -0.96758569
H   -2.26592620  -0.66107546  -0.50363796
H   -2.93326454  -0.25254133  -1.79965286
O   -1.30636525   2.68259282  -2.36658281
H   -1.77249498   3.26113391  -1.76305557
H   -0.93051111   2.00371525  -1.80614480
O   -2.32254266   0.35867964  -3.38337550
H   -1.55221441  -0.17177397  -3.17979455
H   -2.07224043   1.24939521  -3.13800556
O    4.23221913  -1.69766695   0.65095127
H    4.06572373  -1.03476163  -0.01917384
H    3.55170254  -1.55098602   1.30792442
O    3.30418498   0.09300772  -1.27656264
H    3.22771365  -0.35010573  -2.12156823
H    2.47045751  -0.07916985  -0.83897239
O    0.68275775   4.27370226  -1.33125354
H    0.13347500   3.74063425  -1.90602201
H    1.19893819   3.63813651  -0.83542516
O   -0.19942164  -3.29302410   0.46740690
H   -0.39477029  -2.35627832   0.44336309
H    0.67447620  -3.36585787   0.08370172
O   -1.93124940  -3.10531723  -1.66654766
H   -2.45197869  -2.34295054  -1.41382274
H   -1.36429468  -3.26920554  -0.91293316
O    0.01371600  -2.80248057   3.15979167
H   -0.58792565  -2.06005954   3.21520099
H   -0.06272941  -3.10634147   2.25532691
O    2.00763556   1.53435015   2.65361977
H    2.01012773   0.57959466   2.58530008
H    2.01134436   1.83987281   1.74649575
O   -1.61838194  -0.61486163   2.91217320
H   -1.24129434   0.20511116   3.23104844
H   -1.32230925  -0.67803653   2.00410836
O   -3.88920739   0.21808296   1.54626112
H   -3.72723639  -0.12225926   0.66639499
H   -3.19330725  -0.16197846   2.08245900
C    0.02865892   0.00685730   0.25361362
O   -0.33607681   0.95050972  -0.67020798
O    1.12595357  -0.67635406  -0.20055095
O   -1.00795413  -0.86862254   0.44531301
