64
Energy:  -1793.49860161
O   -0.13652609  -1.19872813  -2.42138889
H   -0.15506753  -0.78888353  -1.55656783
H   -0.66484258  -1.99082943  -2.32295588
O    2.10184402  -1.01801421   1.63493861
H    1.76460892  -1.82157567   2.03090997
H    1.40243334  -0.72693010   1.04985180
O    2.39135020  -2.30159587  -2.00863384
H    2.93286591  -1.69633925  -1.50202056
H    1.58596809  -1.81458842  -2.18303349
O   -2.16039452   1.86819659   1.80191577
H   -1.59710108   1.64377832   2.54257007
H   -1.77717385   1.40186297   1.05901152
O   -0.96711914   0.94985852  -3.81161185
H   -0.72441925   0.15022737  -3.34479429
H   -0.97203628   1.62926502  -3.13736080
O   -0.60075096   0.99549632   3.87719186
H    0.31943116   1.14214225   3.65812180
H   -0.78950601   0.11772173   3.54535583
O    1.51834160   2.67563144   0.80192925
H    0.75886871   3.25732062   0.83464730
H    1.17571642   1.85303753   0.45238799
O   -0.86629997   4.01880926   0.64300259
H   -0.82567054   3.70465097  -0.26026131
H   -1.37182085   3.35126599   1.10675519
O   -2.89332643  -1.59709593  -0.36122517
H   -2.02557012  -1.27731557  -0.11430136
H   -3.18651406  -0.99306880  -1.04344513
O   -0.58054667   2.76206542  -1.78678374
H    0.33276170   2.61470151  -2.03251439
H   -0.80186505   2.01719763  -1.22783652
O   -3.17267808   0.46194095  -2.14138541
H   -2.54225808   0.61226770  -1.43696768
H   -2.65885763   0.54386723  -2.94482084
O    3.92218809  -0.63812014  -0.40052761
H    3.87107835   0.30242862  -0.57078529
H    3.32570340  -0.78177195   0.33418460
O    3.64953332   2.09614133  -0.93345845
H    3.10695540   1.92834587  -1.70396849
H    3.02917697   2.37121275  -0.25838396
O    1.65784497   1.46917116  -2.75421064
H    1.02289831   1.19565170  -3.41622401
H    1.40868648   0.98381404  -1.96771184
O    0.67085813  -3.39893974  -0.18342924
H    1.39554931  -3.19066973  -0.77307163
H    0.26777249  -2.55250792   0.00972090
O   -1.53959038  -3.47421473  -1.80127614
H   -2.10351024  -2.89523668  -1.28843050
H   -0.77325192  -3.61668137  -1.24570394
O    0.81572713  -3.27061105   2.56602911
H    0.04542142  -2.72562353   2.72680712
H    0.77744599  -3.47028292   1.63066953
O    1.99832616   1.29311862   3.10361976
H    1.86109315   1.89408938   2.37134038
H    2.09337196   0.43329468   2.69386261
O   -1.25871542  -1.39414031   2.75170968
H   -0.90132159  -1.19641825   1.88602644
H   -2.19202622  -1.19511034   2.67721228
O   -3.71138961  -0.42331049   1.99314810
H   -3.51588082  -0.84839606   1.15809696
H   -3.28387820   0.43103091   1.93342696
C   -0.22794021   0.18871609   0.24350008
O    0.91558501   0.43948220  -0.46813524
O   -0.41839750  -1.16466553   0.33932811
O   -1.29785977   0.75676068  -0.39710719
