64
Energy:  -1788.08984709
O   -3.00966521   2.22407936   1.75152052
H   -2.25643224   1.89955535   2.24503458
H   -3.23753298   1.50567630   1.16143140
O    4.63451613  -0.19433550  -0.46044745
H    4.11314323  -0.14830959   0.34097863
H    4.05044348  -0.59547175  -1.10401617
O    3.41898107   2.82563213   1.28262287
H    3.62981084   2.77879651   0.35010527
H    3.32240837   1.91250179   1.55299029
O    1.36772601  -2.14123505   1.89413654
H    0.61088784  -1.66231376   1.55640553
H    2.11307559  -1.56695803   1.71837605
O   -3.60792156   0.48656235  -2.72821281
H   -3.30793697  -0.42214527  -2.70604136
H   -2.80637766   1.00557871  -2.66202190
O   -4.24387905  -2.39030178  -0.06301123
H   -3.49517616  -2.81209361   0.35861359
H   -4.09222367  -1.45326549   0.06025872
O    1.45273761   1.25714177  -2.00948158
H    1.19176766   0.79410153  -1.21341608
H    0.63031353   1.57233110  -2.38432309
O    0.70120077   2.70592412   1.07468167
H    0.63529906   1.82054585   0.71691898
H    1.64211569   2.87183126   1.13286908
O    1.34738647  -0.30041656   3.95032747
H    0.62209700   0.27585334   3.70928796
H    1.21293272  -1.08846143   3.42388723
O    2.82142724  -1.10678351  -2.27418776
H    2.34747854  -0.28077005  -2.37065654
H    2.22206618  -1.67184575  -1.78663998
O   -2.59177447  -1.99612019  -2.19803697
H   -1.90202299  -1.49271671  -1.76553301
H   -3.22048679  -2.18864683  -1.50241771
O    2.90871040   0.15757277   1.74079319
H    2.53417749   0.13206251   2.62130792
H    2.15009670   0.19612081   1.15834049
O   -3.41034710   0.18610885  -0.00824112
H   -2.48246961  -0.04417824   0.03911989
H   -3.55776366   0.40019279  -0.92947305
O   -0.97705891  -4.10912759  -1.61646192
H   -0.19202288  -3.61082118  -1.38921538
H   -1.58176545  -3.45647837  -1.96946454
O    3.91132326   2.29747547  -1.33746028
H    3.02636394   2.07088346  -1.62335346
H    4.30670438   1.46033996  -1.09433531
O   -0.68699446   1.23171752   2.91458766
H   -0.17838883   1.89666726   2.45048207
H   -0.77082736   0.51301390   2.28795459
O   -1.25442442   1.71628178  -2.20831783
H   -1.02919591   0.93202903  -1.70786645
H   -1.39431567   2.39220215  -1.54514821
O   -1.57659563   3.55929826  -0.18440889
H   -2.18207576   3.16300671   0.44215210
H   -0.70761437   3.37513132   0.17222252
O    1.00154383  -2.47373657  -0.80024084
H    0.44896421  -1.69219951  -0.79089051
H    1.24132372  -2.60909816   0.11650051
O   -1.88056121  -3.30047811   0.85098402
H   -1.49662885  -2.42696887   0.92720341
H   -1.51355272  -3.65406933   0.04073106
C   -0.49064343  -0.00508094   0.21048837
O   -0.85565554  -0.85149203   1.22405277
O   -0.81284443  -0.57083880  -0.99500047
O    0.86059057   0.21619763   0.26510207
