64
Energy:  -1784.59714534
O   -1.06821873  -1.56901659  -2.35564485
H   -0.96872069  -0.95742378  -1.62606537
H   -1.24768627  -2.41205027  -1.93933072
O    2.17075776  -0.86703666   1.86602041
H    1.76478843  -1.53517733   2.41829643
H    1.48910325  -0.62825692   1.23787775
O    1.61530415  -1.44820051  -1.97133201
H    1.41135729  -0.80867290  -1.28895238
H    0.76344827  -1.79199337  -2.24036710
O   -2.34676992   1.80185261   1.41157493
H   -1.75292810   1.82069994   2.16206045
H   -1.89028625   1.27257451   0.75757248
O    1.63285361   0.05540639  -4.25053204
H    0.69159432   0.20951862  -4.33123038
H    1.71729282  -0.52222880  -3.49195480
O   -0.74852967   1.49998294   3.64999078
H    0.18463382   1.63700864   3.48670665
H   -0.88730185   0.56797945   3.48163513
O    0.91446956   2.93659272   0.79346891
H    0.10038967   3.39044118   0.57546122
H    0.78918653   2.04700528   0.46305976
O   -1.49133625   3.92937561  -0.05453937
H   -1.28754383   3.49001412  -0.88016761
H   -1.89721347   3.25062225   0.48470955
O   -2.77756070  -1.74532289   0.08163980
H   -1.89764826  -1.40083161   0.23432150
H   -3.11048057  -1.23469946  -0.65637098
O   -0.79366508   2.37877138  -2.20781706
H    0.15787013   2.42145006  -2.30263858
H   -0.94188225   1.65617377  -1.59780378
O   -1.06562854   0.48892593  -4.15844029
H   -1.17542750  -0.28139906  -3.60096793
H   -1.05756176   1.22701204  -3.54901789
O    3.20721698  -2.57900607  -0.04880143
H    2.76440405  -2.22371810  -0.81946284
H    3.00857777  -1.95629731   0.65048972
O    1.90050146   1.97582742  -2.35486304
H    1.90163106   1.36252945  -3.08977540
H    1.64137416   1.44627749  -1.60076639
O    2.83581164   4.10676866  -0.84239616
H    2.69876258   3.44932116  -1.52446081
H    2.24191375   3.84866895  -0.13748363
O    0.72784409  -3.56256949   0.49013544
H    1.65098451  -3.43916299   0.26919550
H    0.35417146  -2.68181824   0.46050691
O   -1.56046626  -3.91558314  -1.00681461
H   -2.08348363  -3.26981825  -0.53176473
H   -0.72948329  -3.94700157  -0.53277661
O    0.83550373  -2.91174272   3.15291487
H    0.07014956  -2.34027911   3.21531828
H    0.78734376  -3.28197400   2.27152888
O    1.90591652   1.66286366   3.00425425
H    1.64767775   2.19121504   2.24901296
H    2.06273299   0.78996416   2.64413359
O   -1.19351463  -1.07200440   2.92709515
H   -0.82482673  -0.97563217   2.04902141
H   -2.13267722  -0.92877233   2.81009070
O   -3.74364166  -0.40063534   2.21033405
H   -3.51410966  -0.95679160   1.46586301
H   -3.38164831   0.45750013   1.98943547
C   -0.20816635   0.13104078   0.25000998
O    0.98944421   0.47183491  -0.32143266
O   -0.22626686  -1.21524547   0.50355384
O   -1.22936381   0.44869547  -0.60674638
