64
Energy:  -1788.12378129
O   -0.04584357  -1.64404217  -2.36225510
H    0.15019847  -1.14431012  -1.56974816
H   -0.78937817  -2.19607813  -2.12008896
O    2.00955457  -0.81371579   2.28786576
H    1.43759066  -1.38027516   2.80564913
H    1.52425372  -0.65897118   1.47745287
O    2.24518318  -2.92675066  -0.20510557
H    3.03675039  -2.65762513   0.26096808
H    1.71699421  -2.13041389  -0.26074751
O   -2.00303823   2.36315247   1.02601393
H   -1.40411331   1.77136944   0.57069687
H   -2.74457167   1.81065397   1.27320902
O    2.61044220  -2.26313589  -2.84223461
H    2.67887450  -2.66966612  -1.97835844
H    1.69169402  -2.00418944  -2.91351120
O   -0.49642241   2.30226933   3.30950736
H    0.40763916   2.21809917   3.00648934
H   -1.00643621   2.43193934   2.50994282
O    1.92990593   2.26927451  -0.39564215
H    1.17624967   1.68479953  -0.31425977
H    2.61260951   1.72697914  -0.79069077
O   -2.13608679   3.81836478  -1.30016759
H   -1.24083213   3.77258393  -1.63580885
H   -2.09682078   3.37834596  -0.45100715
O   -3.12417695  -0.49645949  -0.77900656
H   -2.25747783  -0.47964587  -0.37307333
H   -3.11716807   0.24002915  -1.39037159
O   -3.09679849   1.59558874  -2.60475225
H   -2.90251496   2.40859120  -2.13836961
H   -2.24605109   1.29067223  -2.92016727
O   -0.50741825   0.94346467  -3.12501186
H   -0.36854861   0.01226685  -3.29768986
H   -0.46752796   1.01931507  -2.17165603
O    4.27671617  -1.45389503   0.88381740
H    4.09648887  -0.91139245   0.11606684
H    3.58792486  -1.22371087   1.50736661
O    3.30151722  -0.03043985  -1.30446946
H    3.27896691  -0.64935444  -2.03431059
H    2.45593990  -0.14110830  -0.86974732
O    0.41666107   3.47347015  -2.38691681
H    0.17031945   2.67375287  -2.85167472
H    0.96840153   3.17144543  -1.66539385
O   -0.30649683  -3.23483159   0.79620892
H   -0.49382361  -2.30076424   0.70315674
H    0.58726788  -3.33418766   0.46826861
O   -2.14541264  -3.06201963  -1.32437593
H   -2.56707113  -2.22115803  -1.14721009
H   -1.57285201  -3.20680868  -0.57108826
O    0.09079463  -2.42555199   3.40826933
H   -0.49824642  -1.67113323   3.41898486
H   -0.04611814  -2.82474247   2.54912225
O    2.06641750   1.94928937   2.37589488
H    2.05438588   0.99372684   2.43055149
H    2.03259621   2.13645512   1.43778137
O   -1.50786778  -0.23205436   3.03576599
H   -1.12177742   0.61846359   3.24501535
H   -1.25069582  -0.39564819   2.12838983
O   -3.83362138   0.46122845   1.71212141
H   -3.68652441   0.07091296   0.85058317
H   -3.11023773   0.13751202   2.24892269
C    0.01640564   0.07315084   0.33025210
O   -0.41383073   1.01805177  -0.56362556
O    1.08255200  -0.60468525  -0.19981295
O   -1.00162536  -0.80671838   0.58952653
