64
Energy:  -1802.56105654
O   -0.00013471  -1.59810159  -2.11863104
H   -0.01737285  -1.07937781  -1.31435476
H   -0.46806471  -2.40272047  -1.89533345
O    2.31423615  -0.70205862   1.78241355
H    1.89155477  -1.33876951   2.35875680
H    1.63781463  -0.46726038   1.14715332
O    2.69657737  -1.80491541  -2.46814793
H    2.78949788  -0.86820595  -2.64185173
H    1.75947762  -1.92931489  -2.31781273
O   -2.27928075   1.88731350   1.55506565
H   -1.69470754   1.86998457   2.31282929
H   -1.81411535   1.39087620   0.88171359
O   -0.46484415   0.45856872  -3.81563249
H   -0.34002754  -0.26663828  -3.20348260
H   -0.61184970   1.22170332  -3.25684201
O   -0.61308522   1.55441766   3.71512978
H    0.30293364   1.69005594   3.47275910
H   -0.78119169   0.63412782   3.51254973
O    1.12368591   2.98849227   0.56175367
H    0.27181144   3.42376206   0.52886069
H    0.93858838   2.08038768   0.32234439
O   -1.37929234   4.02073724   0.12036502
H   -1.27430617   3.61664440  -0.74098203
H   -1.79245928   3.34260527   0.65483856
O   -2.64511917  -1.73609710  -0.18538047
H   -1.80546782  -1.34286896   0.05250414
H   -2.91846034  -1.26165373  -0.97050463
O   -0.67886242   2.58552690  -2.12284026
H    0.22393979   2.90137603  -2.08516612
H   -0.71574190   1.88585443  -1.47066683
O   -2.87091708   0.02747542  -2.27893738
H   -2.29428430   0.31235700  -1.57001639
H   -2.31721194   0.04296765  -3.05957972
O    3.43156408  -2.54315935   0.06417006
H    3.24364595  -2.24331308  -0.82521785
H    3.15384975  -1.81907595   0.62524922
O    2.10853826   0.86782220  -2.77449487
H    1.35471245   0.73724117  -3.34975750
H    1.77585511   0.68057335  -1.89671833
O    1.91219794   3.46485609  -1.99569223
H    2.13801592   2.58699280  -2.30325383
H    1.78710914   3.36376505  -1.05210055
O    0.88758969  -3.39084414   0.55122296
H    1.80825868  -3.24554799   0.33330214
H    0.49024369  -2.52116171   0.50649631
O   -1.22815755  -3.85174213  -1.15254242
H   -1.82147797  -3.19970033  -0.77965609
H   -0.47802287  -3.86144726  -0.55803789
O    0.96641358  -2.66589503   3.18659428
H    0.16749980  -2.14055019   3.23110756
H    0.93498011  -3.07780084   2.32312605
O    1.98589918   1.81551810   2.87928434
H    1.74298318   2.31959150   2.10266752
H    2.16476668   0.93549214   2.54793471
O   -1.18795954  -0.97316571   2.90937224
H   -0.79840779  -0.88475966   2.03950694
H   -2.12960026  -0.88726772   2.76048926
O   -3.70028291  -0.42378863   1.97923292
H   -3.43540367  -0.92437471   1.20755656
H   -3.32964844   0.44751773   1.83892190
C   -0.08299974   0.25685754   0.27582378
O    1.07736039   0.48505974  -0.41587449
O   -0.21144664  -1.08481615   0.52181546
O   -1.14987038   0.68961564  -0.46733681
