64
Energy:  -1782.54407136
O    0.11449768  -1.57675274  -2.02162156
H    0.02515192  -0.99623253  -1.26581374
H   -0.50568957  -2.28630322  -1.85387848
O    2.33971937  -0.63184446   1.43268753
H    2.00962055  -1.34345939   1.98120445
H    1.58646903  -0.36626465   0.90513362
O    2.21137658  -3.07620881  -1.16397539
H    2.92042724  -2.46243472  -0.97224543
H    1.52350500  -2.53484599  -1.55126190
O   -2.69456469   2.12396114   1.24605028
H   -2.40835320   1.71237286   2.06147037
H   -2.21287229   1.66015243   0.56115192
O    0.11234750   0.44259501  -3.81864538
H    0.09720946  -0.27706328  -3.18769796
H    0.00141582   1.23056081  -3.28663419
O    0.09594263  -0.42050384   4.30130787
H    0.64896049   0.27893820   3.95319306
H   -0.70362193  -0.37779828   3.77680372
O    1.14168117   2.85070026   0.86571916
H    0.36490768   3.38256967   0.69260152
H    0.91508634   1.98081039   0.53681454
O   -1.14593103   4.09332736   0.01146130
H   -0.91658794   3.63898979  -0.79922419
H   -1.73428834   3.49058151   0.46617545
O   -2.95813777  -1.47669301  -0.67431165
H   -2.16080345  -1.13471077  -0.26991337
H   -2.99528081  -1.04971524  -1.53019846
O   -0.08499368   2.60688265  -2.11661972
H    0.81918298   2.87345270  -1.95037646
H   -0.24517953   1.89915809  -1.49236152
O   -2.56980088   0.17227379  -2.88680123
H   -2.20111681   0.49493114  -2.06448976
H   -1.82749190   0.15136271  -3.49076476
O    4.01063018  -1.09242419  -0.66686529
H    3.60367579  -0.52061139  -1.31774937
H    3.52739602  -0.91859509   0.14090946
O    2.49246940   0.58137936  -2.26218999
H    1.94686116   0.47807803  -3.04185166
H    1.88055172   0.50878509  -1.52971564
O    2.49894236   3.20739530  -1.48373901
H    2.66054592   2.30483132  -1.75850145
H    2.16566063   3.13009038  -0.58977084
O    0.30354536  -3.23292699   0.80012109
H    1.06164665  -3.24518061   0.21585735
H   -0.05007940  -2.34744119   0.71588168
O   -1.49290141  -3.67482170  -1.21810096
H   -2.12326604  -2.98557333  -1.00879503
H   -0.88986040  -3.68230853  -0.47478586
O    1.44007098  -2.54250044   3.17956761
H    0.89000574  -1.87772658   3.59397779
H    0.91922105  -2.85888713   2.44143033
O    1.80456103   1.40897732   3.12909508
H    1.50644380   2.05727457   2.49107577
H    2.11291888   0.67433353   2.59858043
O   -2.08105491  -0.28369505   2.65898125
H   -1.51092381  -0.39694778   1.89848391
H   -2.96687246  -0.39362546   2.31333051
O   -4.39944279  -0.05117789   1.16858986
H   -3.98696806  -0.59525805   0.49771488
H   -3.95402719   0.79329292   1.09999083
C   -0.44413052   0.40950612   0.21786377
O   -1.40944877   0.86740275  -0.63971989
O    0.78554166   0.52572869  -0.37500841
O   -0.68543262  -0.90603469   0.51603469
