64
Energy:  -1792.75955687
O    0.44993569  -0.81150539  -2.82674902
H    0.53224203  -0.53425680  -1.91428492
H   -0.33668657  -1.35669150  -2.84189446
O    1.82453067  -1.05463292   2.31639341
H    1.22449384  -1.49642539   2.91723205
H    1.31981904  -0.94525259   1.51045671
O    1.81457194  -3.29793695  -0.32714796
H    2.59781260  -3.12141882   0.19401157
H    1.33869136  -2.46744178  -0.33402529
O   -1.77612879   2.41862644   0.97056362
H   -1.29912503   1.71663691   0.52794644
H   -2.55227032   1.99059149   1.33198064
O    2.64241919  -2.42302178  -2.80348850
H    2.41920417  -2.90845811  -2.00928545
H    1.88233370  -1.86398055  -2.96465550
O   -0.23069925   2.28162781   3.21485881
H    0.65522462   2.10974949   2.89575287
H   -0.74193420   2.45184579   2.42372259
O    1.86450652   1.91589838  -0.55833469
H    1.08655499   1.36597981  -0.46552937
H    2.55269255   1.31270186  -0.83902276
O   -1.96227441   3.96752420  -1.28911632
H   -1.08463020   3.88421826  -1.66198708
H   -1.90251416   3.53713232  -0.43622512
O   -3.50536966  -0.36317495  -0.37735252
H   -2.63969453  -0.58198949  -0.03244873
H   -3.33980645   0.32362065  -1.02321044
O   -2.54537814   1.46425453  -2.19047829
H   -2.52217760   2.38847843  -1.94247874
H   -1.81671218   1.06899251  -1.71189110
O   -0.51900988   1.44746500  -4.01248524
H   -0.07678260   0.67552386  -3.65925196
H   -1.34336089   1.49437367  -3.52825715
O    3.93299472  -2.20336096   1.01875409
H    3.92613757  -1.57569107   0.29610940
H    3.27864821  -1.86978103   1.63258380
O    3.30189046  -0.44629559  -1.01103655
H    3.29175144  -1.03236440  -1.76777454
H    2.43016606  -0.53635731  -0.62604655
O    0.49414766   3.44142195  -2.42024060
H    0.21207617   2.76529423  -3.03629158
H    1.00029795   2.96826670  -1.75981056
O   -0.41678850  -3.36690684   1.30736406
H   -0.70457255  -2.50037713   1.02006899
H    0.35747818  -3.55117254   0.77558487
O   -1.73236581  -2.06924932  -1.78160136
H   -2.61906568  -1.74753120  -1.61883577
H   -1.21069178  -1.70805775  -1.06492242
O   -0.07374543  -2.34198055   3.79390242
H   -0.62274685  -1.56496806   3.68863665
H   -0.20147694  -2.83746314   2.98494413
O    2.21950552   1.66873261   2.18409237
H    2.11796368   0.72271379   2.28882774
H    2.10578982   1.81987839   1.24576645
O   -1.50133611  -0.13971477   3.06378629
H   -0.99850736   0.66386580   3.19665223
H   -1.30403680  -0.40028330   2.16411475
O   -3.79440550   0.90820777   2.01238853
H   -3.82885058   0.42931063   1.18431672
H   -3.08286924   0.49338306   2.50010613
C   -0.14324241  -0.14023771   0.28277172
O   -0.54892520   0.73080643  -0.69378446
O    0.91031382  -0.88473583  -0.17857477
O   -1.18124144  -0.97195858   0.61228441
