64
Energy:  -1791.52997774
O    0.51025874  -1.97980237  -1.80320211
H    0.34182124  -1.27580755  -1.17690189
H   -0.02204161  -2.71142295  -1.49076089
O    1.94075464  -0.26719529   2.03749615
H    1.48107131  -0.85969705   2.63236147
H    1.34062974  -0.15388276   1.30044647
O    2.68429910  -3.12673329  -0.58714241
H    3.21023755  -2.41101159  -0.23026282
H    1.98522643  -2.69093047  -1.07459000
O   -2.56911530   2.17162697   0.89373367
H   -2.11230067   2.25601529   1.73065115
H   -2.03530163   1.55733899   0.38982387
O   -1.19730211   0.89402928  -4.71066434
H   -0.76970297   1.46815021  -4.07523065
H   -1.52521455   0.16122282  -4.18941586
O   -1.24632145   2.10422185   3.29191099
H   -0.30652852   2.23094125   3.16166774
H   -1.37587027   1.16007485   3.20227063
O    1.17864081   2.97930896   0.20758516
H    0.36402827   3.42402815  -0.02664357
H    0.99041565   2.04977645   0.07807664
O   -1.20472772   3.95147289  -0.71617982
H   -0.94311827   3.37940188  -1.43765546
H   -1.75780073   3.40098031  -0.16183335
O   -2.73529108  -1.87379613  -0.34053110
H   -1.94906908  -1.44580619  -0.00154522
H   -2.74919055  -1.64827651  -1.27068139
O   -0.10887384   2.19044127  -2.53059183
H    0.82326408   2.40455053  -2.49175925
H   -0.23107009   1.52647081  -1.85203222
O   -1.86552759  -0.96978820  -2.80516734
H   -1.78012590  -0.29599172  -2.13067738
H   -1.04886113  -1.46635252  -2.75309416
O    3.98206878  -0.93164062   0.32387975
H    3.68631962  -0.51046467  -0.48319837
H    3.33265055  -0.67701437   0.97935918
O    2.80043918   0.03975948  -1.97242490
H    2.46792081  -0.63812540  -2.56075770
H    2.08172587   0.20052635  -1.36100276
O    2.53845622   2.77797231  -2.15889285
H    2.74871367   1.84416924  -2.16484937
H    2.19186031   2.94033571  -1.28154386
O    0.66093675  -3.23837171   1.22231479
H    1.47077607  -3.27957006   0.71369428
H    0.27306597  -2.39520838   0.98808477
O   -1.05454795  -3.97135283  -0.74903497
H   -1.73848793  -3.32182649  -0.58602123
H   -0.47027265  -3.89921005   0.00571642
O    0.51209874  -2.00590532   3.64821656
H   -0.30663038  -1.53120451   3.50478150
H    0.58981048  -2.58490459   2.88996028
O    1.44265506   2.31064334   2.82288939
H    1.37685614   2.68800029   1.94567558
H    1.66350499   1.39144630   2.67277624
O   -1.69049037  -0.53784624   2.80915072
H   -1.19303785  -0.58324305   1.99262640
H   -2.60450132  -0.48150893   2.53050767
O   -4.02465697  -0.13517880   1.40924047
H   -3.66162818  -0.73847769   0.76080204
H   -3.63070424   0.71094040   1.19683659
C   -0.33672250   0.26922307   0.17685359
O   -1.29973042   0.55353121  -0.75521025
O    0.90290697   0.45217734  -0.37717285
O   -0.46731009  -1.03220588   0.58552188
