64
Energy:  -1788.06336453
O   -0.11772238   2.56263370  -0.87471292
H   -0.48848149   2.33890668  -1.72836141
H    0.19526059   1.72917584  -0.52311443
O    1.08700400  -0.60784441   3.88135419
H    1.89817231  -0.17645337   3.61276605
H    0.39632480  -0.12274383   3.42983286
O    1.04752029  -4.02749309  -0.39543040
H    1.01408035  -3.53048512   0.42194142
H    0.33870065  -3.66425556  -0.92634005
O   -1.92984064   2.73117815   1.13116718
H   -1.67344344   1.96311690   1.64163192
H   -1.29815165   2.76365510   0.41273409
O    2.66158845  -2.19876478  -1.64507576
H    2.17761494  -2.92348437  -1.24911742
H    2.02336750  -1.48783476  -1.70410438
O    1.92870653   2.56836002   1.63074712
H    1.49340757   1.80382665   1.25360603
H    2.22689962   3.07250309   0.87367877
O   -1.24780665   1.08348354  -2.88606910
H   -1.96499702   1.14406209  -2.25503815
H   -0.55992537   0.60587762  -2.42244882
O   -2.97390987   0.99188711  -0.73955693
H   -2.86418918   1.69384798  -0.09811781
H   -2.20634708   0.43315042  -0.61752194
O   -2.19069242  -1.33553311  -3.74879896
H   -1.68981362  -1.91551109  -3.17523308
H   -1.82275500  -0.46601035  -3.59136936
O   -0.10053371   4.22562022   2.57217877
H   -0.84116853   3.80784387   2.13268493
H    0.65493349   3.68935289   2.33151612
O   -4.25887506  -1.12228630  -1.97539351
H   -3.61570123  -1.22528003  -2.67678611
H   -3.95143242  -0.36500792  -1.47715630
O    3.30312879  -0.50437650   0.41526732
H    3.30843953  -1.22180065  -0.21837788
H    2.40875477  -0.16460161   0.38560285
O    3.20022764   1.24670077  -1.69341138
H    2.30671433   0.92713145  -1.81887556
H    3.53556303   0.73807635  -0.95511387
O    2.37994140   3.68128443  -0.82599082
H    2.81575483   2.89993322  -1.16626833
H    1.44647835   3.47432355  -0.87122110
O    0.74158695  -2.30730224   1.77109364
H    0.67983395  -1.61920464   1.10856809
H    0.96906931  -1.84436303   2.57742540
O   -0.96372062  -2.77557474  -1.77993119
H   -0.74180559  -1.92922667  -1.39175532
H   -1.77685962  -3.03304606  -1.34548287
O   -0.92898813   0.49077984   2.33258392
H   -0.34975563   0.47054641   1.57080169
H   -1.48778513  -0.27954065   2.22970490
O    3.35352688   0.60928730   2.92528478
H    2.94100203   1.41656646   2.61811145
H    3.47244065   0.08432107   2.13376610
O   -1.96365240  -1.88145974   1.43472628
H   -1.17668226  -2.31051016   1.77062148
H   -1.64971279  -1.33315274   0.71567607
O   -3.33936570  -3.23604799  -0.49762366
H   -3.75517122  -2.52229667  -0.98125232
H   -2.94472922  -2.81174869   0.26425822
C    0.42101039  -0.42350961  -0.45360682
O    0.85049577  -0.05532090  -1.70137994
O   -0.94773241  -0.48251643  -0.44095315
O    0.84741331   0.49839013   0.46620927
