64
Energy:  -1783.25771943
O    0.76053451  -4.27628966  -1.70551474
H    0.91739092  -3.33797799  -1.81134070
H   -0.16640832  -4.34020601  -1.47546360
O    1.96194418  -0.42572811   2.00044933
H    1.45380717  -1.05774738   2.50895722
H    1.37860520  -0.16740850   1.28685388
O    1.29743922  -1.60899827  -1.61893232
H    2.14639463  -1.61025383  -1.17677285
H    0.71822614  -1.13150859  -1.02500670
O   -2.68374894   2.06063629   0.90293251
H   -2.30359065   2.05809882   1.78139997
H   -2.07594811   1.54091652   0.37690841
O    1.12786728   0.26355789  -3.57816870
H    1.13351151  -0.38872293  -2.87764766
H    0.76470351   1.04998614  -3.17089172
O   -1.53365788   1.67735338   3.37710494
H   -0.58740139   1.82106415   3.36377414
H   -1.64060333   0.75980664   3.12630124
O    0.86143809   3.20459323   0.79421220
H    0.05879563   3.60427986   0.45917858
H    0.81030051   2.29116379   0.51267454
O   -1.38425118   4.02558592  -0.53608989
H   -0.98571274   3.51178082  -1.23851659
H   -1.93218767   3.39989444  -0.06226753
O   -2.45544562  -1.73385273  -0.97401556
H   -1.71996762  -1.32718804  -0.51583680
H   -2.38101724  -1.41853767  -1.87472011
O    0.21658794   2.49182751  -2.25995682
H    1.01830873   2.92975625  -1.97413515
H    0.04392606   1.83998149  -1.58060677
O   -1.63522078  -0.26800036  -3.19309335
H   -1.51925104   0.14676213  -2.33825129
H   -0.76682006  -0.23724394  -3.59454830
O    3.58565902  -1.25371703  -0.12694261
H    3.57960400  -0.44191355  -0.63406221
H    3.07454833  -1.05104094   0.65658793
O    3.03934084   0.96983291  -1.63947795
H    2.68639889   0.73608918  -2.49798113
H    2.29403655   0.89103371  -1.04404193
O    2.53097091   3.62118084  -1.30953753
H    2.87895674   2.73646090  -1.42093029
H    2.04584786   3.58621568  -0.48511961
O    0.46401890  -3.37485870   0.91964489
H    0.88034327  -3.71526023   0.12779095
H    0.22257189  -2.47592466   0.69636755
O   -1.70760409  -4.29536460  -0.47681648
H   -2.08360091  -3.44855938  -0.71718944
H   -1.07866871  -4.09094493   0.21519850
O    0.40488982  -2.24570777   3.39920840
H   -0.41740846  -1.77782420   3.25380431
H    0.50376556  -2.80283374   2.62715524
O    1.19660107   1.95740791   3.19275053
H    1.10783279   2.50490078   2.41262003
H    1.50365314   1.11393645   2.86032495
O   -1.82226516  -0.86725114   2.46287201
H   -1.23610022  -0.76375551   1.71325133
H   -2.70177774  -0.82064363   2.08801575
O   -4.02259104  -0.36800443   0.88581154
H   -3.55815084  -0.82909242   0.18729525
H   -3.67142339   0.52209563   0.86061195
C   -0.29057819   0.39971976   0.18119488
O   -1.17042596   0.75377535  -0.80747642
O    0.97269903   0.79938149  -0.16737354
O   -0.31098047  -0.96068384   0.34449212
