64
Energy:  -1788.37566080
O   -0.88232492  -1.56811040  -2.23057327
H   -0.60083021  -1.10204324  -1.44331602
H   -1.50548043  -2.22148108  -1.91274343
O    1.98502061  -1.00143953   2.06578064
H    1.41140054  -1.58075316   2.56736572
H    1.47848922  -0.77991048   1.28438274
O    2.08907324  -2.71871427  -1.07079442
H    2.85858824  -2.60872340  -0.51224226
H    1.55948812  -1.93855867  -0.90608654
O   -1.96706828   2.44834981   1.08630005
H   -1.43263542   1.84317447   0.57212483
H   -2.68932796   1.91213002   1.41347148
O    2.85674411  -1.12286551  -3.22994553
H    2.60715088  -1.80798524  -2.60982778
H    2.10459467  -0.53115162  -3.24938103
O   -0.45326662   2.18556935   3.37176785
H   -0.93786752   2.38844910   2.57162186
H    0.45243528   2.07522886   3.08235311
O    1.74319706   2.45195991  -0.20173145
H    1.02086608   1.82405354  -0.18746926
H    2.48523985   1.95630653  -0.54804357
O   -2.19712672   3.81436136  -1.34067402
H   -1.32910625   3.68064897  -1.72132256
H   -2.13816732   3.42784879  -0.46696716
O   -3.34374089  -0.63115905  -0.34973792
H   -2.43539041  -0.64713441  -0.04828140
H   -3.34288614  -0.01427352  -1.08164185
O   -2.73321095   1.26965733  -2.24291114
H   -2.74579897   2.20230139  -2.02785661
H   -1.91849919   0.94576783  -1.85875988
O    0.70276659   0.54457414  -2.99639485
H    0.67875987   0.54820649  -2.03950284
H    0.05768045  -0.11550941  -3.25013770
O    4.11207692  -1.81305460   0.55190106
H    4.08951625  -1.03842459  -0.00994519
H    3.44869218  -1.64373463   1.22084296
O    3.41367411   0.35630794  -0.99620693
H    3.45563269  -0.01833986  -1.87604234
H    2.55271328   0.09882793  -0.66653689
O    0.32516729   3.31398824  -2.42650841
H    0.27320003   2.43300006  -2.79717143
H    0.83116299   3.20605902  -1.62118147
O   -0.15997377  -3.24392058   0.51063586
H   -0.38389515  -2.31343741   0.49354392
H    0.61374844  -3.31487113  -0.04842747
O   -2.58820492  -3.26316308  -0.89814309
H   -2.95155367  -2.40815674  -0.66754890
H   -1.80068199  -3.34234354  -0.35984026
O    0.13174770  -2.64922165   3.19757799
H   -0.44591806  -1.88755869   3.24660514
H    0.01733189  -2.98025462   2.30675924
O    2.08138861   1.74867067   2.45485011
H    2.06933961   0.79406410   2.38547460
H    1.98822269   2.05601745   1.55313512
O   -1.37646417  -0.35495254   3.00328071
H   -0.99807421   0.49189904   3.23970255
H   -1.16210577  -0.46331195   2.07670608
O   -3.75513746   0.61216325   2.04052656
H   -3.75613801   0.17322480   1.18990098
H   -3.00667803   0.23607196   2.50377129
C   -0.03011343   0.12185116   0.21607165
O   -0.57788512   1.04178944  -0.63869037
O    1.06119043  -0.45787964  -0.37559285
O   -0.95967313  -0.84256790   0.50519935
