64
Energy:  -1793.26754829
O    0.71521473  -1.65901740  -1.88905000
H    0.46853041  -1.05423047  -1.18932759
H    0.07297587  -2.36650363  -1.83226690
O    1.78191906  -0.41124302   2.26267247
H    1.33030349  -1.16443787   2.64342534
H    1.27646757  -0.19998291   1.47773947
O    2.74337054  -3.03013456  -0.66423743
H    3.21657917  -2.38865313  -0.13432516
H    2.08583402  -2.51606447  -1.13286257
O   -2.53285638   2.25825318   0.79625422
H   -1.99422807   2.60797893   1.50604524
H   -1.97401344   1.60972426   0.36807592
O    0.03495644  -0.22618919  -4.09365534
H    0.27407617  -0.81488719  -3.37777248
H    0.10852082   0.65102786  -3.71774262
O   -0.02045074   0.95248425   3.84749414
H    0.73231048   0.64288549   3.34377695
H   -0.75275480   0.42047631   3.53615804
O    0.89782517   3.12029357   0.38200464
H    0.16825283   3.46375476  -0.13373799
H    0.82689718   2.16972477   0.29471180
O   -1.26470927   3.83926131  -1.11141415
H   -0.89484653   3.20084739  -1.72121828
H   -1.82363108   3.32165793  -0.53182378
O   -2.74959790  -1.68099150  -0.60654169
H   -1.94477719  -1.31181013  -0.24294769
H   -2.83337088  -1.27218547  -1.46798905
O    0.25158739   2.02154620  -2.54556884
H    1.11578965   2.38061354  -2.34442973
H    0.05239181   1.44708494  -1.80628051
O   -2.45909565  -0.18884555  -2.90237759
H   -2.06492675   0.21175110  -2.12753242
H   -1.72910027  -0.30383118  -3.51074994
O    3.95371030  -1.03124315   0.72532233
H    3.77489728  -0.50114547  -0.05137207
H    3.25047150  -0.80822175   1.33519814
O    3.06496086   0.27253825  -1.51757356
H    2.79977886  -0.33084677  -2.21171827
H    2.28267489   0.37313013  -0.97522516
O    2.67167930   2.98017056  -1.70078143
H    2.95200217   2.06598062  -1.65710437
H    2.17148349   3.11651396  -0.89614084
O    0.50453767  -3.39623546   0.81571750
H    1.36675815  -3.38219228   0.40025332
H    0.16425813  -2.51010160   0.69239497
O   -1.07548157  -3.68774178  -1.38551626
H   -1.75425674  -3.05557774  -1.14915901
H   -0.54319164  -3.77522561  -0.59479136
O    0.32296506  -2.50236639   3.36895577
H   -0.48146430  -1.99052492   3.28443617
H    0.40390916  -2.96195803   2.53321931
O   -0.70256560   3.25111533   2.58766056
H   -0.06875958   3.26280478   1.87045407
H   -0.47065350   2.47672889   3.10027568
O   -1.78947737  -0.79129086   2.70053110
H   -1.26494956  -0.76871268   1.90016078
H   -2.67553589  -0.57106594   2.41307129
O   -4.02155851  -0.04859182   1.27954361
H   -3.65910888  -0.62367543   0.60564379
H   -3.60297693   0.79791199   1.12317026
C   -0.31975333   0.28870151   0.23624821
O   -1.17341865   0.64604815  -0.77395834
O    0.97059777   0.55093110  -0.14233926
O   -0.45662639  -1.04952929   0.49736946
