64
Energy:  -1786.51311724
O    0.79008958  -1.52469807  -2.00758661
H    0.45583945  -0.98222378  -1.29328251
H    0.21338249  -2.28857787  -2.01891935
O    1.77345307  -0.54285685   2.30236664
H    1.29645720  -1.26519735   2.71093854
H    1.25133700  -0.31518492   1.53308636
O    2.81306190  -2.90524363  -0.76348285
H    3.27977547  -2.27249695  -0.21755068
H    2.15914858  -2.38405324  -1.22930449
O   -2.79377180   1.93420976   0.59236233
H   -2.36954012   2.09154347   1.43587014
H   -2.16967802   1.39483679   0.10675384
O    0.24276526   0.12437138  -4.10095681
H    0.43617650  -0.50561248  -3.40673475
H    0.19082900   0.96803997  -3.65178224
O   -1.14843431   2.06612501   2.81545127
H   -0.52097623   2.33495206   2.14443694
H   -1.23140856   1.11942953   2.70093142
O    0.47829082   3.05936449   0.76145930
H   -0.22090410   3.45261352   0.23923951
H    0.49782073   2.14310018   0.48521640
O   -1.54629656   3.89847786  -0.86960583
H   -1.09239805   3.39544346  -1.54574515
H   -2.10741686   3.25906163  -0.43083169
O   -2.59056895  -1.78240143  -0.83958781
H   -1.82992860  -1.37530251  -0.42494510
H   -2.68765611  -1.31833328  -1.67112054
O    0.05715048   2.31189144  -2.45127370
H    0.88605238   2.64335965  -2.10590097
H   -0.22458424   1.65742436  -1.81211000
O   -2.29646993  -0.12276098  -3.00027357
H   -1.91509684   0.20372668  -2.18529368
H   -1.56657269  -0.13338769  -3.61944152
O    3.98426398  -0.93747956   0.69838461
H    3.80885145  -0.33453797  -0.02405828
H    3.27083714  -0.78386390   1.31778449
O    3.13843332   0.57042934  -1.47725601
H    2.94584100   0.06408155  -2.26640236
H    2.32937424   0.53638772  -0.96686751
O    2.35484913   3.24000501  -1.28363136
H    2.75406534   2.37082568  -1.32085444
H    1.84761601   3.23655845  -0.47188353
O    0.58425494  -3.40624802   0.71243797
H    1.45381152  -3.35850690   0.31516730
H    0.21705997  -2.53049709   0.59218818
O   -0.83555887  -3.70786396  -1.60693540
H   -1.54480792  -3.10216188  -1.39170850
H   -0.33766351  -3.79301837  -0.79386666
O    0.18928336  -2.56047930   3.29780194
H   -0.55277119  -1.97049607   3.16548913
H    0.30921208  -2.98905219   2.45035033
O    1.15072649   1.37508176   4.23943513
H    1.45461932   0.73712124   3.59376697
H    0.32694366   1.70548050   3.88103541
O   -1.72987194  -0.66457352   2.58413194
H   -1.20769246  -0.70262099   1.78281251
H   -2.63733511  -0.66789686   2.27961362
O   -4.04590479  -0.45611422   1.09487791
H   -3.63000608  -0.99809370   0.42441661
H   -3.73693498   0.43117889   0.91190127
C   -0.29443083   0.27231104   0.19615574
O    1.00995406   0.59030732  -0.07663871
O   -0.40144399  -1.07780976   0.40308756
O   -1.08399251   0.63651849  -0.86295970
