64
Energy:  -1783.18067936
O    0.39441982  -1.79785428  -1.93826252
H    0.26138856  -1.10610116  -1.29017909
H   -0.14108328  -2.52666188  -1.62472184
O    2.33329130  -0.43678593   3.61345130
H    1.62938126  -1.08350123   3.66346939
H    1.90584925   0.35921639   3.29737306
O    2.84339796  -2.48045955  -0.99312047
H    2.97630748  -1.82011507  -0.31303807
H    1.99846420  -2.25652019  -1.38321016
O   -2.54315992   2.20802061   0.76683123
H   -2.17435323   2.24401301   1.64939456
H   -1.98203414   1.59089294   0.29723231
O   -0.38223924  -0.35753029  -4.14432104
H   -0.04256099  -0.92817825  -3.45496522
H   -0.25176813   0.52906175  -3.80792293
O   -1.46338863   2.00471489   3.27062642
H   -0.53974616   2.06997302   3.02802014
H   -1.65969971   1.06931345   3.21849241
O    1.44044164   3.04148761  -0.02472206
H    0.61547019   3.47409715  -0.24495590
H    1.26312503   2.10909691  -0.14897277
O   -1.02331307   3.86711362  -0.91451101
H   -1.60670183   3.37007394  -0.34106445
H   -0.80096149   3.25697568  -1.61773453
O   -2.59203764  -1.78864281  -0.36859796
H   -1.80447230  -1.32074212  -0.09103420
H   -2.76255717  -1.46734963  -1.25399371
O   -0.01137044   2.00490141  -2.72503950
H    0.90784354   2.27168998  -2.73510789
H   -0.08464292   1.42492410  -1.96708877
O   -2.72452934  -0.37450803  -2.71956148
H   -2.27882398   0.09411414  -2.01389028
H   -2.05438425  -0.48687478  -3.39373588
O    2.91744922  -0.61492193   0.92175247
H    2.13362522  -0.22907439   0.53063426
H    2.74418888  -0.60802025   1.86311588
O    2.92948564   0.11484140  -2.22977621
H    3.20168200  -0.78776991  -2.06414468
H    2.18338562   0.25148498  -1.64591393
O    2.61077415   2.81823570  -2.48966893
H    2.87854895   1.89932357  -2.47831138
H    2.32592581   2.99629467  -1.59334964
O    0.92115150  -3.09253783   0.97658623
H    1.71023953  -3.06394926   0.43551819
H    0.50677892  -2.24026062   0.84186140
O   -0.97309997  -3.90777903  -0.80599958
H   -1.65081570  -3.25707424  -0.62292443
H   -0.31800929  -3.77107606  -0.12160178
O    0.31814536  -2.30129332   3.56924578
H   -0.46919961  -1.79160226   3.37810511
H    0.57123409  -2.67721382   2.72611961
O    1.07682090   1.65459441   2.35909218
H    1.42129295   2.35029140   1.79911313
H    0.69115037   1.02501219   1.74989901
O   -1.77628794  -0.64464168   2.73065278
H   -1.21035046  -0.65006049   1.95869600
H   -2.66289618  -0.56986746   2.37771298
O   -4.01799210  -0.10504933   1.26496149
H   -3.61801451  -0.71367276   0.64381151
H   -3.63556833   0.74518128   1.04795500
C   -0.19591764   0.37664016   0.11516355
O   -1.20318089   0.57774998  -0.79144218
O    1.01530017   0.51119349  -0.51089205
O   -0.30088261  -0.88413772   0.64166302
