64
Energy:  -1784.35931116
O    0.58490222  -2.03738204  -1.58747416
H    0.34476342  -1.35335694  -0.96243427
H   -0.19011764  -2.59661140  -1.64075266
O    2.00701001  -0.02726322   1.92118839
H    1.67707533  -0.65921293   2.55994853
H    1.35232989  -0.02778539   1.22288651
O    2.72785595  -3.20495004  -0.38644562
H    3.24835842  -2.44474577  -0.12683341
H    1.99323525  -2.83654559  -0.87720263
O   -2.84951975   1.74007808   0.85068752
H   -2.19936145   1.20828609   0.39164143
H   -3.35348230   1.11064851   1.36650921
O    0.78425349  -0.48892600  -3.77739058
H    0.72753733  -1.05983903  -3.01118341
H    0.47598988   0.36207084  -3.46592665
O   -1.40348495   2.38426188   3.15589190
H   -0.46930461   2.47996697   2.97047490
H   -1.81018438   2.28592316   2.29498719
O    0.68601073   3.06469913   0.05102517
H   -0.16688137   3.36596388  -0.26209855
H    0.64428151   2.11099622  -0.01926904
O   -1.76300373   3.48854224  -1.11711240
H   -1.36820035   2.87908500  -1.74075012
H   -2.25006095   2.93000772  -0.51126893
O   -2.86334522  -1.86862437   0.11229564
H   -1.99149272  -1.53277190   0.32040183
H   -3.18890962  -1.28357873  -0.57178130
O   -0.12548233   1.81324971  -2.67400857
H    0.69405757   2.29158046  -2.54836667
H   -0.20801911   1.26877079  -1.89108952
O   -1.91862476  -0.88994397  -3.21661507
H   -1.77383568  -0.44652479  -2.38076376
H   -1.08618478  -0.80397373  -3.68124894
O    3.98931776  -0.86566240   0.22587213
H    3.69722640  -0.45543137  -0.58814567
H    3.35870298  -0.57091243   0.88289519
O    2.78736194   0.33840499  -1.95915988
H    2.40685923  -0.04493567  -2.74941267
H    2.06633674   0.35600064  -1.32983889
O    2.27393728   3.01594097  -2.15598653
H    2.61289558   2.12270752  -2.09705326
H    1.83611600   3.16229647  -1.31746137
O    0.71525365  -3.18515711   1.47217769
H    1.47012724  -3.28281196   0.89178020
H    0.25723545  -2.41213419   1.14219777
O   -1.82639586  -3.30434912  -1.97988011
H   -1.90546850  -2.53345217  -2.54174954
H   -2.14868107  -3.01358984  -1.12675460
O    0.98122903  -1.78468598   3.76634264
H    0.17534541  -1.27238457   3.70053454
H    0.92958127  -2.40746856   3.04128663
O    1.26691061   2.51717225   2.63372196
H    1.11347669   2.85111300   1.74988179
H    1.56876549   1.61846358   2.50166815
O   -1.22424461  -0.31379368   3.13260464
H   -1.21954663   0.63875401   3.22674637
H   -0.95184055  -0.46687756   2.22784323
O   -3.79506549  -0.45625831   2.24940194
H   -3.59836161  -1.03004201   1.50892122
H   -2.97480329  -0.40838947   2.74043182
C   -0.46788190   0.24018544   0.11775718
O   -1.40327665   0.26901367  -0.88282464
O    0.77259274   0.48505706  -0.40984052
O   -0.47562269  -0.99347857   0.71424138
