64
Energy:  -1784.83678761
O    0.46144120  -1.71151766  -1.80970548
H    0.22156942  -1.07707328  -1.13429915
H   -0.18492811  -2.41197554  -1.72140300
O    1.67788421  -0.35794735   2.21165227
H    1.17128317  -1.00048957   2.70836821
H    1.14600347  -0.18087167   1.43577926
O    2.38555544  -3.18385880  -0.52692063
H    2.93107349  -2.55864165  -0.04969382
H    1.77334841  -2.63934437  -1.02183317
O   -2.46171281   2.93473414   0.41948958
H   -2.14782300   2.83791224   1.31856164
H   -2.16755124   2.13931761  -0.02437229
O   -0.02282873  -0.16890661  -3.99548084
H    0.12238425  -0.78024025  -3.27338929
H    0.09567091   0.69675343  -3.60455581
O   -1.13023601   1.93877909   2.64368631
H   -0.24884172   2.14550341   2.95455768
H   -0.98990395   1.43214272   1.84377485
O    1.34309464   3.00168948   0.42430112
H    0.66257948   3.53807838   0.01758509
H    1.06619160   2.09974254   0.26290631
O   -0.59219118   4.24992496  -1.04071618
H   -0.36786507   3.56654106  -1.67229840
H   -1.31827316   3.88214963  -0.53695223
O   -2.87958291  -1.59704254  -0.81574057
H   -2.14211930  -1.18019640  -0.37007416
H   -2.95806890  -1.12372600  -1.64401785
O    0.29944656   2.09597455  -2.49405445
H    1.22157702   2.29654835  -2.33381271
H    0.04011269   1.54999237  -1.75184070
O   -2.56401170   0.08050974  -2.96491850
H   -1.79739581  -0.07917898  -3.51540142
H   -2.20628033   0.44388573  -2.15484566
O    3.79541505  -1.22739267   0.71900866
H    3.62595171  -0.73538454  -0.08438540
H    3.11636597  -0.93523644   1.32709495
O    2.88926098  -0.00250794  -1.55339671
H    2.57202112  -0.60712391  -2.22423964
H    2.11861828   0.18860222  -1.01877666
O    2.88177270   2.70710984  -1.81411225
H    3.04343139   1.76446852  -1.77505258
H    2.47092570   2.91511644  -0.97496396
O    0.17279710  -3.27722537   1.02719729
H    1.01936305  -3.33470868   0.58419209
H   -0.13710580  -2.39143865   0.83858678
O   -1.28890628  -3.73848433  -1.24343517
H   -1.95632670  -3.06244962  -1.12613685
H   -0.82334321  -3.76370109  -0.40746448
O    0.17345420  -2.22751029   3.54286018
H   -0.61732556  -1.69919041   3.43433682
H    0.21810629  -2.75877861   2.74788093
O    1.54477991   2.25873248   3.05616360
H    1.55045554   2.66309071   2.18858418
H    1.66108377   1.32398013   2.88603629
O   -1.95355896  -0.68515923   2.80152909
H   -1.83038144   0.23439439   3.03707161
H   -1.55139436  -0.76734589   1.93680900
O   -4.31269910  -1.49591439   1.56980672
H   -3.95456899  -1.53769541   0.68311115
H   -3.58002922  -1.20161280   2.11092895
C   -0.47667388   0.39789042   0.24128738
O   -1.32689847   0.81548654  -0.74850553
O    0.81908773   0.53443024  -0.18233689
O   -0.72632620  -0.91769774   0.53228860
