64
Energy:  -1791.56454566
O    0.72409313  -1.60329003  -2.16042787
H    0.46940497  -0.98938296  -1.47159996
H    0.01222936  -2.24263248  -2.18731728
O    1.53865652  -1.15099407   1.84177162
H    0.97162208  -1.74509046   2.33345574
H    0.97393480  -0.79160730   1.15754769
O    2.56651765  -2.49978722  -0.32411253
H    2.30740637  -2.01660609   0.46050788
H    1.99186605  -2.16526296  -1.01266239
O   -2.50917906   2.14493790   0.98308469
H   -2.07756884   2.06870161   1.83404443
H   -2.00820694   1.56725658   0.40728692
O    0.18449218   0.16529682  -4.17168112
H    0.42912753  -0.51682096  -3.54630065
H    0.25533155   0.98141993  -3.67654812
O   -1.21727419   1.49038901   3.34789622
H   -0.26392109   1.48356632   3.26243764
H   -1.48835322   0.61172801   3.08199612
O    1.10477635   2.75155102   0.64701671
H    0.37778920   3.29945297   0.35117049
H    0.89406517   1.87662500   0.32092301
O   -1.02722503   3.93534372  -0.56803800
H   -0.70312526   3.37274869  -1.27137151
H   -1.62885832   3.37882823  -0.07350819
O   -2.90346036  -1.56154726  -1.10696466
H   -2.11380593  -1.26980066  -0.65137533
H   -2.91315738  -1.05473306  -1.91892351
O    0.33877070   2.22627223  -2.36020051
H    1.25645671   2.41306831  -2.16223218
H    0.09064272   1.54881571  -1.73114008
O   -2.38090397   0.17497162  -3.16658550
H   -2.04649113   0.47460917  -2.32123514
H   -1.60144692   0.08531234  -3.71489178
O    4.19010940   1.15017620   1.98442360
H    3.96471944   0.81156191   1.11795284
H    3.34786656   1.25948553   2.42591009
O    3.40695506   0.18428381  -0.54442193
H    3.54144703  -0.76261093  -0.58358946
H    2.45826626   0.28914599  -0.47213554
O    2.87901689   2.77792290  -1.44159995
H    3.24273137   1.90181271  -1.31363687
H    2.35532116   2.93739707  -0.65639767
O    0.12009670  -3.57818078   0.34231683
H    1.04829241  -3.48812696   0.12650465
H   -0.22625533  -2.68744709   0.28878534
O   -1.25221863  -3.53863342  -2.00913465
H   -1.91567688  -2.89837534  -1.75198762
H   -0.78839588  -3.74291953  -1.19712018
O   -0.22947862  -2.94228882   2.98199270
H   -0.94803672  -2.31513599   2.90084200
H   -0.14929155  -3.32949330   2.11028486
O    1.54714692   1.35005081   2.92519513
H    1.39961318   1.90784466   2.16143361
H    1.52847553   0.45815604   2.57819808
O   -2.05002426  -0.94188274   2.40084100
H   -1.49913207  -0.89830773   1.61927151
H   -2.93193351  -0.74670752   2.08402157
O   -4.19185772  -0.08742782   0.90750690
H   -3.81800691  -0.58605197   0.18097998
H   -3.71627512   0.74321582   0.89833134
C   -0.43339380   0.17928294   0.08352210
O   -1.28810988   0.71903530  -0.84118660
O    0.86004022   0.35781708  -0.33151136
O   -0.69049035  -1.16023412   0.21533871
