64
Energy:  -1783.06795212
O    0.65536495  -1.44216710  -2.15860943
H    0.43182276  -0.94804802  -1.36987179
H   -0.18104695  -1.78774647  -2.47041367
O    1.96891046  -0.52453015   1.96885209
H    1.46841337  -1.19570954   2.43280546
H    1.40848710  -0.27143643   1.23529836
O    2.49244247  -3.22926627  -1.19489756
H    3.04316728  -2.64805201  -0.67037491
H    1.83480248  -2.65167994  -1.58237082
O   -2.39007486   2.26747461   0.97640643
H   -2.00890908   2.14726373   1.84617298
H   -1.86915170   1.70232921   0.40589649
O   -0.12648012   0.43621066  -3.95925253
H    0.25949189  -0.15339770  -3.31147214
H   -0.19825714   1.27642229  -3.50634601
O   -1.31265133   1.54103678   3.38163882
H   -0.37111147   1.69209309   3.29847308
H   -1.43817530   0.63955703   3.08531156
O    1.25352829   3.11476865   0.59478948
H    0.45776833   3.59045206   0.35662310
H    1.07960284   2.21034087   0.33403636
O   -1.04945065   4.24813836  -0.35217902
H   -0.79051891   3.75838253  -1.13277202
H   -1.60558103   3.64236119   0.13770347
O   -2.79104761  -1.36402010  -0.87565831
H   -2.62388201  -2.14424043  -0.34693933
H   -2.03407812  -0.80000856  -0.71716532
O   -0.06769823   2.61034078  -2.31126460
H    0.87212491   2.76406701  -2.21465937
H   -0.25742177   1.89467150  -1.70458981
O   -1.81072145  -1.73379751  -3.39410877
H   -2.23928964  -1.57354740  -2.55334658
H   -1.47802877  -0.87689725  -3.66107202
O    3.87890887  -1.32480397   0.18061682
H    3.69480359  -0.70448110  -0.52474595
H    3.26837784  -1.08401611   0.87739865
O    2.98180955   0.33533126  -1.81181368
H    2.63185055  -0.27158104  -2.46405444
H    2.26063391   0.46861411  -1.19669319
O    2.58896023   3.07379046  -1.80474673
H    2.83067004   2.15034491  -1.87585596
H    2.24998605   3.16525301  -0.91426205
O    0.43350033  -3.40068961   0.58053221
H    1.19659975  -3.53954985   0.01961426
H    0.19339193  -2.48530910   0.43680213
O   -2.31319239  -3.35895335   0.96174445
H   -1.40627188  -3.56485270   0.73517769
H   -2.24927865  -2.60061027   1.54231542
O    0.41062705  -2.45434497   3.15950247
H   -0.39147965  -1.93969433   3.07010781
H    0.49306622  -2.91705506   2.32563497
O    1.37488021   1.91918445   3.04882023
H    1.35356457   2.45032678   2.25278925
H    1.63225851   1.04741023   2.74882360
O   -1.88140387  -0.96846690   2.34125621
H   -1.28611165  -0.83348906   1.60393674
H   -2.71925294  -0.61636776   2.04081156
O   -4.04474786   0.09199265   1.07675395
H   -3.73189574  -0.39438760   0.31400258
H   -3.59383190   0.93477110   1.02545935
C   -0.23520917   0.36405320   0.14123342
O   -1.14011860   0.73220615  -0.81926681
O    1.02744196   0.70571065  -0.26629708
O   -0.30194888  -0.99075851   0.33568457
