64
Energy:  -1798.26481962
O    0.15095440  -1.88041913  -1.87470216
H    0.06993328  -1.18813074  -1.21865017
H   -0.41779669  -2.58112083  -1.55568622
O    1.94710688  -0.30981096   1.98196520
H    1.47031982  -0.90310816   2.56239985
H    1.35684872  -0.17328741   1.24089268
O    2.30612403  -3.19780277  -0.73096156
H    2.91433261  -2.55358589  -0.36860983
H    1.65399504  -2.67580118  -1.19837354
O   -2.61137786   2.16915884   0.83478635
H   -2.00374605   1.59408984   0.36969380
H   -3.28935078   1.58191650   1.16904821
O    1.15500698  -0.33306273  -3.90757223
H    0.81844003  -0.96499638  -3.27226570
H    0.74696586   0.49666240  -3.66000306
O   -1.27626902   2.34451968   3.25442874
H   -0.33273821   2.35398682   3.09351932
H   -1.66886713   2.39193350   2.38273470
O    1.01902057   2.98024368   0.15005857
H    0.22459878   3.39321738  -0.18843602
H    0.86435893   2.04134842   0.04619657
O   -1.28382748   3.78361348  -1.10930480
H   -0.96703923   3.14166144  -1.74473743
H   -1.85589180   3.28320116  -0.52744419
O   -2.99573753  -1.56305216  -0.32096539
H   -2.16906609  -1.20464579   0.00213065
H   -3.02942297  -1.29775701  -1.24004951
O    0.15008312   1.93952113  -2.71745292
H    1.00628402   2.31483887  -2.51181133
H   -0.05536007   1.38409610  -1.96543698
O   -2.36740937  -0.69155081  -2.82779016
H   -1.62976375  -1.28966840  -2.94764895
H   -2.05334902  -0.04730480  -2.19332580
O    3.89179063  -1.23242675   0.27251722
H    3.69790123  -0.71535364  -0.50932301
H    3.27584668  -0.91161786   0.93124824
O    2.92077269   0.18428503  -1.87824591
H    2.52399216  -0.06531218  -2.71281064
H    2.18418767   0.24020297  -1.26951975
O    2.62846454   2.88411165  -2.02474357
H    2.88988552   1.96391060  -1.99126317
H    2.18022582   3.03667474  -1.19285512
O    0.34228590  -3.20667987   1.13432485
H    1.12189410  -3.29340871   0.58576217
H    0.00509869  -2.33311730   0.93576736
O   -1.49744910  -3.77961988  -0.78935779
H   -2.12250347  -3.07957190  -0.60101848
H   -0.88193415  -3.75529720  -0.05670399
O    0.50493867  -2.01408527   3.58431504
H   -0.25522069  -1.43886541   3.49764485
H    0.46941355  -2.57691957   2.81088931
O    1.40406958   2.27333360   2.74515426
H    1.31359825   2.65187442   1.87065232
H    1.63168848   1.35702877   2.58765202
O   -1.56408538  -0.33191692   2.95959800
H   -1.42047866   0.59301747   3.15986113
H   -1.22033725  -0.44168855   2.07302073
O   -4.01227240  -0.03637926   1.75179895
H   -3.82326590  -0.55201638   0.96781761
H   -3.24579360  -0.16087451   2.31148013
C   -0.37673055   0.34121966   0.13629927
O   -1.26208007   0.66521513  -0.85775381
O    0.89977744   0.37625983  -0.36008599
O   -0.65245887  -0.91835124   0.60023381
