64
Energy:  -1792.96015876
O    0.49073778  -1.76986984  -2.01580063
H    0.36610697  -1.10542915  -1.33814468
H   -0.05525931  -2.50426831  -1.73512661
O    1.30233264  -0.39521456   2.78704151
H    0.94018000  -1.17473525   3.20825974
H    0.87097785  -0.36149811   1.93321009
O    2.92241519  -2.46299879  -1.03035748
H    3.07249623  -1.79058882  -0.36584837
H    2.08596973  -2.22355440  -1.42942793
O   -2.51756791   2.15491562   0.85383145
H   -2.18434189   2.16443513   1.75110602
H   -1.93023338   1.56128537   0.38599267
O   -0.25617753  -0.17439716  -4.13075406
H    0.07620885  -0.79240083  -3.47973747
H   -0.11427598   0.68704294  -3.73830439
O   -1.54300635   1.87605225   3.37848315
H   -0.61755470   2.09948581   3.27924340
H   -1.58018503   0.93245188   3.22206090
O    1.36012445   2.91683028   0.31531914
H    0.56538133   3.37737526   0.04603574
H    1.18182905   1.99669419   0.12091702
O   -0.99007350   3.88097776  -0.71886216
H   -0.74628670   3.29669201  -1.43678277
H   -1.58913684   3.36326501  -0.18096954
O   -2.49741084  -1.79845356  -0.48535264
H   -1.71756682  -1.34268261  -0.16857510
H   -2.65775611  -1.42559225  -1.35224114
O    0.09031823   2.09832715  -2.56372905
H    0.99524395   2.40642027  -2.51453629
H    0.00805512   1.47860774  -1.83887563
O   -2.60086531  -0.22649566  -2.72452469
H   -2.16755615   0.19729278  -1.98366142
H   -1.91771732  -0.30246952  -3.39068431
O    3.13547869  -0.49353932   0.78382427
H    2.42261270  -0.10352318   0.27791782
H    2.77854805  -0.58960896   1.66677557
O    2.97164010   0.19255265  -2.32041097
H    3.29323560  -0.69495225  -2.16184481
H    2.19894528   0.27134421  -1.76097692
O    2.67603963   2.92202521  -2.10601033
H    2.94828005   2.01016183  -2.20907430
H    2.35095543   2.97530970  -1.20728185
O    0.99610334  -3.19604423   0.86222290
H    1.78070429  -3.15143725   0.31574013
H    0.58005049  -2.34068041   0.75505664
O   -0.89242747  -3.91614470  -0.97764237
H   -1.56643483  -3.26702310  -0.77618003
H   -0.24419663  -3.81318650  -0.28091557
O   -0.00107751  -2.71774231   3.45477181
H   -0.75054953  -2.16644436   3.22984048
H    0.33940139  -3.01571128   2.61125509
O    1.12161104   2.33837353   3.00052022
H    1.23609314   2.60253231   2.08764245
H    1.26492793   1.39197293   2.99627315
O   -1.82340477  -0.76244289   2.63640208
H   -1.23024324  -0.72297762   1.88617962
H   -2.69474903  -0.63804152   2.26021685
O   -4.01776325  -0.17178700   1.13584228
H   -3.57813203  -0.74701600   0.50968909
H   -3.62443511   0.68836759   0.98867257
C   -0.08100348   0.30835194   0.15315543
O   -1.12315621   0.59304029  -0.68935783
O    1.10206774   0.42910824  -0.52718213
O   -0.21010965  -0.97279271   0.62196264
