64
Energy:  -1784.40408806
O    0.10691171  -1.48424607  -2.38794761
H    0.16247248  -0.91704509  -1.61890412
H   -0.63672090  -2.05962621  -2.20855955
O    1.41830976  -0.48477682   2.46160262
H    0.93427103  -1.19927035   2.87565255
H    0.98762583  -0.36171656   1.61567155
O    2.70602266  -2.38444455  -2.40570346
H    1.84677301  -2.05122838  -2.66433228
H    2.60122334  -2.63078276  -1.48670050
O   -2.72015559   1.98490012   0.69577551
H   -2.44558883   2.01412233   1.61228574
H   -2.08104238   1.41207922   0.27193310
O   -0.35111582   0.34253886  -4.35123012
H   -0.15107366  -0.39096737  -3.76969456
H   -0.13106206   1.12117554  -3.83982705
O   -1.86372209   1.75123710   3.27431228
H   -0.92348157   1.93048742   3.28130816
H   -1.92903419   0.82065928   3.05985695
O    1.13620561   2.77023688   0.56316822
H    0.36259692   3.23190553   0.23971266
H    0.97860913   1.85269135   0.34067015
O   -1.09342430   3.82476965  -0.61509182
H   -0.74825018   3.29152889  -1.33115116
H   -1.73547145   3.26083707  -0.18382933
O   -2.56423770  -1.88197817  -1.13128340
H   -1.82846777  -1.51990389  -0.63754596
H   -2.70507451  -1.25855585  -1.84384319
O    0.24800642   2.16269342  -2.38337336
H    1.17040409   2.36353861  -2.22502057
H    0.03778145   1.48112263  -1.74501721
O   -2.68731698   0.20080536  -2.92762292
H   -2.23071246   0.44881558  -2.12373543
H   -2.01476815   0.24034858  -3.60758339
O    3.83707346  -0.99308039   1.29435505
H    3.75928387  -0.54713388   0.45096171
H    3.07009270  -0.70543169   1.78956267
O    3.31230646   0.01805939  -1.22205493
H    3.26163662  -0.77026834  -1.76261371
H    2.43079633   0.12005466  -0.86321137
O    2.81906709   2.71234617  -1.59791573
H    3.11529093   1.80274479  -1.56461994
H    2.34057176   2.83905289  -0.77863588
O    1.93494065  -2.59566881   0.19091702
H    2.62028110  -2.11720611   0.65740792
H    1.21034255  -1.97369210   0.12508076
O   -0.28443813  -3.81397263   1.19292061
H   -0.71548849  -3.01219643   0.89697744
H    0.62378986  -3.71798780   0.90631865
O   -0.19211178  -2.45355622   3.54819347
H   -0.93354920  -1.88043547   3.35316782
H   -0.14810696  -3.05138455   2.80193834
O    0.84456506   2.08818603   3.18127225
H    0.96194075   2.46447799   2.30899985
H    1.06684627   1.16318101   3.07549591
O   -2.09704958  -0.82460594   2.41931942
H   -1.46288010  -0.83261927   1.70238379
H   -2.94956759  -0.79224476   1.98527144
O   -4.15743940  -0.43933002   0.66845966
H   -3.66386020  -0.96410463   0.03820334
H   -3.77939580   0.43731179   0.59907654
C   -0.29782884   0.08442875   0.16215289
O   -1.16551385   0.53470185  -0.79770920
O    0.99094538   0.27582482  -0.26155381
O   -0.51332928  -1.25088788   0.38185554
