64
Energy:  -1784.38885578
O    1.08244171  -0.48109069  -2.70083520
H    0.78510211  -0.30852364  -1.80750344
H    0.80633593  -1.38068998  -2.87610238
O    1.97393967  -1.03312905   2.43082071
H    1.33566008  -1.52385995   2.94852159
H    1.52596344  -0.85465139   1.60396228
O    1.93592244  -3.03178996  -0.54024091
H    2.78445287  -2.95577277  -0.10383589
H    1.52734165  -2.17434834  -0.42155031
O   -1.92157636   2.30625437   0.92639508
H   -1.32137340   1.67171860   0.53479245
H   -2.69242402   1.79159670   1.16546244
O    0.41529694  -3.14545440  -2.84562138
H    1.02780188  -3.21112979  -2.11298485
H   -0.44923825  -3.13031158  -2.43503467
O   -0.55860281   2.32456000   3.31511992
H    0.35388662   2.15518492   3.08079753
H   -1.00731843   2.42487013   2.47558194
O    1.89512819   2.27526290  -0.19815367
H    1.13727000   1.69058090  -0.20360914
H    2.62146102   1.72950045  -0.49951031
O   -2.00561547   3.94223935  -1.28712698
H   -1.09149079   3.95052585  -1.57092134
H   -1.99534931   3.46298683  -0.45860813
O   -3.04019956  -0.65399228  -0.82406465
H   -2.22193118  -0.65230271  -0.32740999
H   -2.93865333   0.05747112  -1.45631463
O   -2.21125205   1.45594854  -2.39190874
H   -2.33973240   2.35952714  -2.10334268
H   -1.51214987   1.12167293  -1.82999433
O    0.00082265   1.68026670  -3.96342329
H    0.45851958   0.92498005  -3.59425198
H   -0.87673726   1.63833005  -3.58347359
O    4.07686869  -1.96566825   0.85065156
H    4.01610515  -1.28029596   0.18521601
H    3.43136103  -1.71605625   1.51189702
O    3.35262903   0.04352955  -0.96433829
H    2.54420323  -0.16511961  -0.49620892
H    3.13396579  -0.08048654  -1.88793899
O    0.59549394   3.69621232  -2.18732033
H    0.45887183   3.01431018  -2.84502523
H    1.06568932   3.25596163  -1.47927550
O   -0.36548358  -3.20307295   0.91352640
H   -0.53604871  -2.26662755   0.81248487
H    0.49091498  -3.33623336   0.50722397
O   -1.91639671  -3.14905775  -1.37635116
H   -2.35209892  -2.30032166  -1.29861775
H   -1.42942414  -3.24468892  -0.55784994
O   -0.09415192  -2.44163675   3.54738570
H   -0.64993227  -1.66244788   3.53307686
H   -0.19693712  -2.82575475   2.67668460
O    2.01347069   1.75226692   2.54430622
H    1.99621858   0.79543060   2.56426788
H    1.97471858   1.97363299   1.61386160
O   -1.60491610  -0.19024832   3.10233135
H   -1.22260301   0.66196676   3.31161110
H   -1.31243824  -0.37166827   2.20914864
O   -3.83931042   0.47934344   1.59233848
H   -3.65681698   0.03272110   0.76562421
H   -3.15790102   0.16864299   2.18847463
C    0.02561176   0.06741184   0.36718810
O   -0.33131307   0.85772929  -0.69345386
O    1.11803784  -0.68643917   0.02746364
O   -1.01772797  -0.75969835   0.69139660
