52
Energy:  -1524.58803666
O    1.42200781   1.13135624  -2.91620287
H    1.35416904   0.57416993  -2.14084929
H    0.63474808   1.67522597  -2.89051874
O    0.45203025  -2.86778776  -1.03799808
H    0.16327523  -2.74838442  -1.94276061
H    0.63604576  -1.98180342  -0.72590532
O   -2.97296750  -0.47254819   0.01050919
H   -3.01208332  -0.15108716   0.91126699
H   -2.09184029  -0.24607540  -0.28707571
O   -0.33992429  -1.13688930  -3.15828458
H   -0.53659486  -0.75059436  -2.30486279
H    0.36871042  -0.59705844  -3.50850072
O    1.90845653   2.47006823  -0.50687203
H    1.98405174   2.13671113  -1.40095830
H    1.42203449   1.79185481  -0.03820155
O    1.71712322  -2.17092444   2.92887177
H    2.16662180  -1.36338486   2.67974792
H    0.78646784  -1.96276844   2.84650990
O   -0.88394205   2.46119189  -2.22542348
H   -0.76601975   1.64876881  -1.73318887
H   -0.60296984   3.14981407  -1.62285733
O   -2.84767665   0.52308952   2.55567004
H   -2.12778096  -0.09760418   2.66845905
H   -2.44492279   1.28442437   2.13806923
O    3.74509010  -1.32538697  -0.09487965
H    2.95655942  -0.88980545  -0.41848426
H    3.44322316  -2.18817326   0.18921193
O    2.70957116   0.15008015   1.98840523
H    1.88172982   0.39259451   1.57355905
H    3.22009367  -0.25434722   1.28695165
O   -1.83698700  -2.90157112   0.53562446
H   -1.05670338  -2.91377878  -0.01866815
H   -2.30745004  -2.11129355   0.27037413
O   -0.78142076  -1.22071048   2.43411679
H   -0.35858628  -0.58869990   1.85273441
H   -1.14609585  -1.88163148   1.84553599
O   -1.65704697   2.40959139   1.01515477
H   -2.24820809   2.27543244   0.27437022
H   -0.94716952   1.78361394   0.87212301
O   -3.35759432   2.01187417  -1.11481695
H   -3.31346072   1.09192539  -0.85409041
H   -2.57209230   2.14919750  -1.64430796
O   -0.10742994   4.22470814  -0.28319978
H   -0.68631413   3.71612140   0.28465977
H    0.70252160   3.71577886  -0.31786027
O    2.47945411  -3.62540844   0.72805663
H    2.18756016  -3.17975111   1.52330459
H    1.78576021  -3.45719057   0.09030796
C    0.20142546  -0.15442223  -0.08096660
O    1.39067125  -0.33708433  -0.73616687
O   -0.74938337   0.27107167  -0.97091957
O    0.36175924   0.78706521   0.90172088
