52
Energy:  -1520.99488592
O    1.34956128   1.21748800  -2.86964470
H    1.20818133   0.47868350  -2.27768907
H    0.56459665   1.75656293  -2.77237901
O   -0.30667553  -2.87127423  -2.02773328
H   -0.89636381  -2.34995590  -2.57245960
H    0.23597649  -2.22542110  -1.57536797
O   -2.93805379  -0.46499592   0.05870570
H   -2.89276077  -0.36169641   1.00923692
H   -2.04601833  -0.29497941  -0.24394754
O   -1.76031669  -0.75949362  -3.10135900
H   -1.18427886  -0.48213632  -2.38897905
H   -2.52482509  -0.18819130  -3.02806225
O    2.16603038   1.85225323  -0.36823556
H    2.10245948   1.75070234  -1.31790813
H    1.58407069   1.17914774  -0.01541299
O    2.43785818   0.37291985   2.65260306
H    3.20041731   0.45002798   2.07920115
H    1.69130590   0.33218027   2.05491432
O   -0.93956136   2.59722168  -1.91333637
H   -0.79751483   1.72198975  -1.55274837
H   -0.50803781   3.18514289  -1.29336224
O   -2.44525351  -0.08794193   2.71417804
H   -1.79334774  -0.78458063   2.63707270
H   -2.00693436   0.69011839   2.36960542
O    3.05723653  -2.00962059   0.42829743
H    2.34890735  -1.57507590  -0.04675259
H    2.68760359  -2.19766678   1.29099202
O    4.27603525   0.41779023   0.62777309
H    3.95834024  -0.47645353   0.50275376
H    3.60825764   0.96896115   0.21970993
O   -2.07175356  -3.09440288   0.07729441
H   -1.41325251  -3.10083835  -0.61737587
H   -2.46204723  -2.22167247   0.02992018
O   -0.56331245  -1.96724730   2.10616255
H   -0.16545309  -1.28306618   1.56779838
H   -1.03584072  -2.51881563   1.48268740
O   -1.28731092   1.92710841   1.28719049
H   -1.89986250   1.89243162   0.55247291
H   -0.61066130   1.28725538   1.06590957
O   -3.47498243   1.25516642  -2.09323219
H   -3.37219409   0.66080620  -1.34999446
H   -2.66430119   1.76391175  -2.10758338
O    0.35645810   3.79981634   0.17867551
H   -0.23975520   3.26502731   0.70285319
H    1.09847730   3.22330949  -0.00375038
O    2.02004505  -2.28519610   2.97849546
H    2.22984754  -1.35136848   2.99193908
H    1.10168478  -2.32101120   2.71098181
C    0.14933005  -0.49452750  -0.26329120
O    1.23782939  -0.77528432  -1.04642796
O   -0.72177008   0.30053613  -0.96054091
O    0.55853505   0.15925973   0.86935779
