52
Energy:  -1533.84018728
O    1.31756388  -0.24292798  -2.67761225
H    1.17897586  -0.47263940  -1.75877718
H    0.58863401   0.33924239  -2.89202017
O   -1.11721467  -2.90132265  -0.90923526
H   -0.97158042  -1.96147639  -0.80101546
H   -0.26725634  -3.29915238  -0.72073008
O   -2.74603930   0.06206719   0.93145270
H   -2.49877611   0.60583351   1.67939050
H   -1.92738869  -0.07823180   0.45568045
O    0.27123682  -2.68066618  -3.28163982
H    0.66197720  -1.81331864  -3.17551705
H   -0.40395026  -2.72418771  -2.60454298
O    2.32964356   1.68238652  -1.00213390
H    2.25874898   1.06325611  -1.72868971
H    1.71578018   1.35323509  -0.34558006
O    0.42032242   0.39735640   3.18484946
H    0.47456442   0.59737844   2.25035449
H    0.14388214  -0.51843469   3.21860317
O   -0.86484512   1.40903858  -2.52391844
H   -0.77121832   0.78108249  -1.80758261
H   -0.38905455   2.18467100  -2.22685024
O   -1.90495559   1.79943806   2.89142941
H   -1.10886431   1.31386159   3.10749888
H   -1.67115175   2.31127327   2.11709593
O    2.81331614  -0.48194937   2.04853344
H    2.18304097  -0.10486565   2.66236805
H    2.31900378  -0.59601300   1.23682127
O    4.44131577   1.28878534   0.72597258
H    3.99564909   0.65524959   1.28832968
H    3.79375459   1.51399295   0.05800710
O   -2.65800757  -2.63634172   1.34731426
H   -2.16674732  -2.85948138   0.55667913
H   -2.80348228  -1.69257990   1.28111321
O   -0.23117455  -2.22292707   2.57475608
H    0.18693766  -1.81330559   1.81737620
H   -1.11836506  -2.42612644   2.27838663
O   -1.17562721   2.85761870   0.48718790
H   -1.91280086   2.57167432  -0.05229580
H   -0.58577386   2.10400444   0.50643439
O   -3.16449836   1.86603286  -1.08884829
H   -3.14055063   1.15596133  -0.44739933
H   -2.46196360   1.65708887  -1.70449361
O    0.47697885   3.57719902  -1.54387370
H    1.21305577   2.99294510  -1.36202216
H   -0.09644110   3.48476394  -0.78303392
O    1.55459980  -3.52410597  -0.99136160
H    1.30700615  -3.33927135  -1.89732263
H    1.58004176  -2.66524510  -0.56952921
C    0.17028830  -0.35926898   0.30126823
O    1.29580960  -1.01529956  -0.12274127
O   -0.76080289  -0.35384222  -0.70378826
O    0.49189229   0.93067131   0.63354089
