52
Energy:  -1530.08425189
O    1.44192460   1.28057523  -2.92720161
H    1.29919065   0.54407376  -2.33270648
H    0.64383240   1.80428335  -2.85641685
O    0.27592427  -3.00849919  -2.03296078
H   -0.41503631  -2.60466273  -2.55805261
H    0.70468428  -2.27357141  -1.59446580
O   -2.83097174  -0.92616367  -0.31266024
H   -2.91025230  -0.77460111   0.62913338
H   -1.96266555  -0.59177366  -0.53729222
O   -1.69721508  -1.38508315  -3.01257489
H   -1.14358290  -0.79687271  -2.49902670
H   -2.46042821  -1.54254431  -2.45674800
O    1.96963687   2.02303054  -0.37173238
H    2.00220782   1.90946264  -1.32161306
H    1.41798389   1.30433464  -0.06288445
O    2.10705447   0.72603459   2.67648792
H    2.90063650   0.86003204   2.15831411
H    1.41764868   0.58517748   2.02755742
O   -0.89817196   2.55977101  -2.07756745
H   -0.76768345   1.67062619  -1.74798274
H   -0.59370147   3.12575340  -1.36820610
O   -2.68105854  -0.38817447   2.35025772
H   -1.92196194  -0.97085883   2.37223823
H   -2.32758879   0.45596403   2.06968477
O    3.15819501  -1.65585603   0.60170072
H    2.44367499  -1.30770469   0.06833064
H    2.75536096  -1.84365184   1.44945617
O    4.12582391   0.87383606   0.83563825
H    3.91361302  -0.05163824   0.71441238
H    3.44516426   1.34151687   0.35168685
O   -1.60241374  -3.39168913  -0.06138932
H   -0.87901873  -3.32510148  -0.68468507
H   -2.07254346  -2.56260766  -0.14989811
O   -0.48268852  -1.97008087   2.01662140
H   -0.79432222  -2.61634061   1.38300903
H   -0.14932886  -1.25022219   1.48098470
O   -1.62396810   1.81600620   1.14181939
H   -2.23661648   1.83321111   0.40656584
H   -0.92552079   1.22599517   0.85846415
O   -3.33151249   1.75219558  -1.00254771
H   -3.21419634   0.80726453  -0.90470049
H   -2.57066142   2.03736690  -1.50852679
O   -0.00389250   3.79593206   0.18284427
H   -0.60082041   3.21261191   0.65150888
H    0.78293807   3.26986041   0.04009226
O    2.02043766  -1.94346341   3.10478372
H    2.11331225  -0.99084329   3.09378088
H    1.13560524  -2.10213665   2.77595819
C    0.15802210  -0.47996793  -0.39053319
O    1.33534416  -0.67776201  -1.06265569
O   -0.70837461   0.22394463  -1.18486476
O    0.40151561   0.22623424   0.75827907
