52
Energy:  -1526.30562583
O    0.95031188   0.65531950  -3.23523782
H    0.83926735   0.05812329  -2.49546917
H    0.33362683   1.36703202  -3.06378317
O   -0.51274745  -3.10531692  -1.91272221
H   -1.10938949  -2.68353165  -2.53106459
H   -0.01821142  -2.38293331  -1.52564614
O   -3.34062348  -0.15105961   0.01235727
H   -3.22137654  -0.10035822   0.96074611
H   -2.45111719  -0.16692224  -0.34085482
O   -1.47187991  -0.89512291  -3.36027106
H   -1.41144231  -0.61241131  -2.44777268
H   -0.66832874  -0.56972988  -3.76605024
O    2.06724405   1.53418495  -0.85886258
H    1.94159598   1.35462078  -1.79063569
H    1.43017916   0.97197036  -0.41807360
O    2.36120569   0.81317680   2.30986226
H    3.07470509   0.59076303   1.71179658
H    1.56684362   0.70275363   1.78734194
O   -0.83383191   2.48387555  -2.16217984
H   -0.87118010   1.62341753  -1.74450898
H   -0.34926675   3.03019891  -1.54334282
O   -2.64139393   0.22497428   2.64078722
H   -2.02883944  -0.50928448   2.59751000
H   -2.16690009   0.95690604   2.24662565
O    2.22819448  -2.21639991   0.80740574
H    1.64245921  -1.64826322   0.30703914
H    2.07711697  -1.97227876   1.72053897
O    3.95013462  -0.11495993   0.27089969
H    3.45922016  -0.92958333   0.37871222
H    3.36040601   0.45747695  -0.21978151
O    0.02468148  -3.90439562   0.72106751
H   -0.32366124  -3.71937471  -0.15108870
H    0.85647832  -3.43178761   0.75249278
O   -0.69892655  -1.69335034   2.27673746
H   -0.40985126  -1.05568432   1.62401289
H   -0.66936488  -2.53420226   1.82031004
O   -1.31283753   2.13046327   1.17208565
H   -2.00098308   2.25592734   0.51867437
H   -0.79804278   1.39486845   0.84024461
O   -3.22953765   2.46369385  -0.77151139
H   -3.37006264   1.53245771  -0.60038625
H   -2.49083470   2.48712299  -1.37978835
O    0.54243424   3.67036771  -0.13400438
H   -0.08495179   3.24051783   0.44724229
H    1.19218719   2.99466274  -0.32759092
O    1.74581177  -1.55521867   3.42850506
H    2.00338843  -0.66885976   3.17502131
H    0.82947151  -1.62468863   3.16068740
C   -0.13901026  -0.53354821  -0.31377294
O    0.87206231  -0.96865684  -1.12947578
O   -1.00628145   0.24292754  -1.03628583
O    0.38874959   0.20464777   0.71302619
