52
Energy:  -1523.03198003
O    2.99767570  -1.09620902  -2.51554550
H    2.27534231  -1.72387714  -2.49320605
H    2.95667678  -0.65288531  -1.66818783
O   -1.90315116  -1.51713447  -1.94158136
H   -1.27937713  -0.91940209  -1.52944812
H   -2.23742000  -2.05005247  -1.22012825
O   -2.81886993  -0.22518089   0.90594617
H   -3.02230336   0.17523725   0.06065806
H   -1.86737499  -0.32932549   0.89937857
O    0.69493968  -2.44963206  -1.78506108
H    0.87663933  -1.73481606  -1.17493390
H   -0.19459899  -2.28012082  -2.09525253
O    2.66797906   1.95976303  -0.44011923
H    2.18485351   1.15051688  -0.27295999
H    2.13398642   2.43019629  -1.08025692
O    2.41109583  -0.62427249   2.44659277
H    2.07130293  -0.66785594   1.55279575
H    1.79542476  -0.05641658   2.90997236
O    0.99119799   0.66405712  -3.13566236
H    1.78312320   0.13018332  -3.07190446
H    0.50219421   0.46430236  -2.33741103
O   -2.21855847   1.99686508   2.32606210
H   -1.36838537   1.73944183   2.68267228
H   -2.55634996   1.20197835   1.91340747
O    1.87794708  -3.30836250   2.71014139
H    2.14700381  -2.38975725   2.71231259
H    1.18854444  -3.35494302   2.04773208
O   -1.16112872   2.53358294  -0.14758378
H   -1.61605626   2.44952555   0.69039422
H   -0.76362123   1.67489226  -0.29204813
O   -2.72943908  -2.86913857   0.28167138
H   -2.88029995  -1.98041883   0.60361869
H   -1.81542935  -3.05147590   0.49977950
O    0.28658517   1.11628761   2.98760364
H    0.11018853   0.48095666   2.29372278
H    0.68730132   1.85933285   2.53644713
O    1.08490177   3.20874105   1.40248102
H    0.28195131   3.06250217   0.90236444
H    1.77063598   2.78796347   0.88388034
O   -3.18035514   0.94269509  -1.52405700
H   -2.76592389   0.14310626  -1.84830427
H   -2.44973441   1.49989845  -1.25582273
O    0.83544111   3.17277805  -2.12332569
H    0.88327950   2.33602229  -2.58569259
H    0.11517637   3.06308384  -1.50250548
O   -0.06274697  -3.10725091   0.75625129
H    0.28553184  -3.16810935  -0.13325979
H   -0.08666272  -2.16833375   0.94089809
C    0.41646954   0.10406437   0.15261492
O    1.57238171  -0.57183247  -0.13719348
O   -0.29141927  -0.58755761   1.10005951
O   -0.33869360   0.22505567  -0.98442947
