52
Energy:  -1523.51886775
O    1.88324996  -0.06219248  -2.47595417
H    1.64802839  -0.42958155  -1.62394013
H    1.17569901   0.55041140  -2.67675254
O   -0.20105877  -3.22906586  -1.26583925
H   -0.21622752  -2.27441673  -1.19767190
H    0.36380345  -3.51206531  -0.54676079
O   -3.13450284  -0.51141536  -0.27409565
H   -3.17180725  -0.33099953   0.66520747
H   -2.19983114  -0.51696645  -0.48046873
O    1.34226365  -2.58858581  -3.48201882
H    0.81145620  -2.92454092  -2.75979346
H    1.58557453  -1.70378913  -3.20968356
O    1.55058693   2.63735062  -0.44046825
H    2.41186942   2.30847718  -0.69789121
H    1.09634033   1.87142539  -0.08939786
O    1.30704543   1.50315086   2.77911468
H    1.07436697   2.41618509   2.61041055
H    0.91273296   1.01723378   2.05479837
O   -0.28686621   1.68093157  -2.21001346
H   -0.37094913   0.87407402  -1.70193589
H    0.33202693   2.21482806  -1.71185921
O   -2.97765969  -0.03331469   2.39341811
H   -2.29240650  -0.69822195   2.46093302
H   -2.51512939   0.76204754   2.12941718
O    1.20555725  -3.31020769   1.09028921
H    1.37224112  -2.47428608   0.65476263
H    0.47143103  -3.13231524   1.67820487
O    3.82452309   1.32438898  -1.14156529
H    3.73233095   0.93538303  -0.27184877
H    3.23415308   0.81454090  -1.69631751
O   -2.57223588  -3.17679963   0.09757945
H   -1.77758400  -3.26524901  -0.42866853
H   -2.89593220  -2.29845414  -0.10232485
O   -1.13915171  -2.11223967   2.17617315
H   -0.60785508  -1.51244529   1.65252972
H   -1.68254241  -2.57238474   1.53646625
O   -1.80203006   2.16993590   1.22847957
H   -2.27455236   2.29670487   0.40574987
H   -1.07535455   1.58992535   1.00096624
O   -2.88241718   2.04814268  -1.28775280
H   -3.08554119   1.14996707  -1.02649993
H   -2.00691862   1.99444067  -1.67096318
O    0.34143161   3.87751389   1.70578042
H   -0.48465152   3.40080100   1.62476603
H    0.86024403   3.58788711   0.95532599
O    3.18964572   0.19922132   1.24847966
H    2.71519409   0.72527337   1.89221621
H    2.50469934  -0.25667842   0.75936235
C    0.10987925  -0.54951989   0.12625179
O   -0.64470877  -0.60274230  -1.01599278
O    0.17394905   0.74473379   0.57111272
O    1.37464194  -1.00432795  -0.14077849
