52
Energy:  -1530.78739462
O    1.32790254   1.59417428  -2.68600559
H    1.27300655   0.90374357  -2.02530618
H    0.46318591   2.00455250  -2.67669349
O    0.31880929  -3.50997315  -1.71019232
H    0.14899358  -2.70548510  -2.20028768
H    1.02011290  -3.27688140  -1.10185578
O   -2.79543232  -0.89278762  -0.14938125
H   -2.86109989  -0.72329705   0.79040200
H   -1.94006694  -0.54192381  -0.39732577
O   -0.13776436  -1.15999237  -3.09514246
H   -0.31098337  -0.72949859  -2.25794349
H    0.62354379  -0.69987781  -3.44860583
O    1.69508895   2.54198378  -0.13533892
H    1.70171523   2.39879465  -1.08174518
H    1.25219368   1.77176999   0.22081601
O    2.62949546   0.21629705   2.22528763
H    3.24639865   0.39538254   1.51564640
H    1.76643300   0.30101008   1.82009788
O   -1.15175039   2.56534356  -1.95083926
H   -0.93410155   1.70774919  -1.58560958
H   -0.94432741   3.18407512  -1.25056873
O   -2.76719840  -0.30274644   2.52515032
H   -1.98786945  -0.85803719   2.54818110
H   -2.44707377   0.54775095   2.22447399
O    2.23710200  -2.64212635   0.03910502
H    1.87984597  -1.78761501  -0.20257730
H    2.21345117  -2.65020782   0.99597867
O    3.87675419   0.86890533  -0.10497255
H    3.27604127   0.19645133  -0.42619124
H    3.33315906   1.65112325  -0.01078496
O   -1.65306300  -3.35286011   0.19464924
H   -0.97399189  -3.43773365  -0.47459718
H   -2.10548436  -2.53828509  -0.02447242
O   -0.53627479  -1.79724971   2.17187413
H   -0.20454464  -1.06446391   1.65301776
H   -0.85942707  -2.42326690   1.52387186
O   -1.81671548   1.90315412   1.26757226
H   -2.41242526   1.81104365   0.52401503
H   -1.05583348   1.37198872   1.03272390
O   -3.51572718   1.65116609  -0.88521718
H   -3.34992707   0.71548532  -0.77013602
H   -2.77266305   1.96495299  -1.40060569
O   -0.50289362   4.04831568   0.25541650
H   -1.02878603   3.40785588   0.73445748
H    0.35601050   3.63525670   0.16654671
O    2.05129609  -2.37993712   2.76929174
H    2.38454479  -1.49021529   2.65279186
H    1.10451798  -2.29856191   2.65430861
C    0.27718769  -0.24850769  -0.15963725
O    1.48914008  -0.24849622  -0.79848761
O   -0.67491334   0.28643665  -0.98694430
O    0.36384552   0.50241405   0.98333570
