52
Energy:  -1526.41849074
O    1.26156646   0.86648735  -3.02867413
H    1.32320578   0.26549969  -2.28621452
H    0.46350211   1.36902763  -2.86503305
O    1.07859384  -2.94138322  -2.31028112
H    0.40376207  -2.54562136  -2.86183029
H    1.31281560  -2.25375074  -1.68695650
O   -2.78411390  -0.37496809   0.87693464
H   -2.41783642  -0.10433666   1.71885584
H   -2.02869793  -0.42365767   0.29109516
O   -0.66576742  -1.14263271  -3.39263492
H   -0.85051372  -1.00315664  -2.46384695
H    0.02742271  -0.51476907  -3.59636645
O    2.32720193   2.04321809  -0.60361091
H    2.38904446   1.81235695  -1.53049304
H    1.63345086   1.47932339  -0.26161079
O    0.88965867  -0.18315190   2.73533846
H    0.66471818   0.09756795   1.84830408
H    1.00901770  -1.13022206   2.66432169
O   -0.99959755   1.89862759  -1.93794961
H   -0.79962730   1.10455767  -1.44227158
H   -0.54414065   2.59653823  -1.46708700
O   -1.67676668   0.71638094   3.16778057
H   -0.80852799   0.31524516   3.12926417
H   -1.61789582   1.47253700   2.58383358
O    3.27087488  -1.34153257   0.74252725
H    3.43754603  -0.54195077   1.24164800
H    2.56454185  -1.10607746   0.14095731
O    3.23802047   1.10831394   1.95287235
H    2.99720783   1.46573774   1.09818566
H    2.42183580   0.75009452   2.30180395
O   -0.52598804  -3.17511075  -0.07903189
H   -0.01427412  -3.45250217  -0.83892314
H   -0.57982457  -2.22291123  -0.16057661
O   -3.17488949  -3.10886706   0.73584574
H   -2.29146311  -3.30814663   0.42588228
H   -3.19050792  -2.15545541   0.81947674
O   -1.35455093   2.57543430   1.19634436
H   -2.12901073   2.44331432   0.64954624
H   -0.74350516   1.89423434   0.91559267
O   -3.34373117   1.90054645  -0.52515951
H   -3.29102686   1.05605870  -0.07761673
H   -2.62466390   1.88274561  -1.15671096
O    0.30132109   3.88477943  -0.54144372
H    1.06523399   3.30829664  -0.52309937
H   -0.25814406   3.56440947   0.16608273
O    1.36293176  -2.82656272   2.03308084
H    0.68610611  -2.93350991   1.36472376
H    2.08079729  -2.38511319   1.57918301
C    0.25639292  -0.40969841  -0.11186279
O    1.34910041  -0.64672477  -0.90354911
O   -0.88412109  -0.52078053  -0.86285369
O    0.33775855   0.85402712   0.41173784
