52
Energy:  -1524.22517304
O    1.22590447   0.29052958  -3.12245087
H    1.18062219  -0.19466442  -2.29857700
H    0.44871068   0.84922950  -3.11496309
O   -0.69653101  -2.86771083  -1.69116838
H   -0.72883188  -1.94966619  -1.42212834
H    0.20713689  -3.13522323  -1.52367721
O   -3.07950466  -0.60195123   0.31740831
H   -2.95973635  -0.21326778   1.18390273
H   -2.22117737  -0.52759012  -0.09969663
O    0.14124503  -2.01936205  -4.18067257
H   -0.27756287  -2.33582587  -3.38024616
H    0.56078304  -1.19832563  -3.92353662
O    2.08683693   1.74307640  -0.91545397
H    2.06142375   1.36683874  -1.79524442
H    1.50845070   1.18274913  -0.39802324
O    1.84204357   0.86246092   2.81605944
H    1.29470867   0.79721455   2.03350001
H    1.93416055  -0.04036424   3.12044908
O   -0.99672362   1.73442455  -2.46089722
H   -0.89164799   0.97017777  -1.89422463
H   -0.60042691   2.45389917  -1.96943304
O   -2.48994505   0.52273468   2.72156898
H   -1.80554547  -0.14403130   2.77859708
H   -2.10508467   1.21648995   2.18601510
O    3.21829501  -1.40296767   0.85019506
H    2.44133119  -1.27700517   0.30550018
H    3.59479827  -0.52725392   0.93738779
O    3.90344050   1.24810955   1.09588207
H    3.25642341   1.20161830   1.79975656
H    3.39079133   1.44176179   0.31107541
O   -2.09988311  -3.11069451   0.73006200
H   -1.54350446  -3.14673162  -0.04799711
H   -2.58910174  -2.29316845   0.63760589
O   -0.62679434  -1.47076345   2.46963156
H   -0.26339025  -0.93054501   1.76796686
H   -1.08766426  -2.17605084   2.01531840
O   -1.49641422   2.20839214   0.81192633
H   -2.17109344   2.05376100   0.15076901
H   -0.84899564   1.51997836   0.65971762
O   -3.38779413   1.71304554  -1.11671599
H   -3.39843815   0.84288126  -0.71805237
H   -2.64067691   1.69389619  -1.71478037
O    0.13610890   3.62081862  -0.84945427
H    0.90337557   3.04853256  -0.84472486
H   -0.43423838   3.26317489  -0.16899355
O    1.98313027  -1.84635750   3.23721620
H    1.05228277  -1.81546045   3.01630863
H    2.43201119  -1.78759643   2.39383912
C    0.13973402  -0.59144819  -0.10337408
O    1.25078591  -0.94245982  -0.82400777
O   -0.88719483  -0.29833628  -0.96162890
O    0.42219565   0.50813631   0.66403035
