52
Energy:  -1525.10688046
O    1.54196469   1.66801650  -2.83655201
H    1.42116178   0.87852989  -2.30896372
H    0.70655525   2.13064146  -2.77096950
O    0.70728479  -3.57110637  -1.15135475
H    0.41790967  -2.92709924  -1.79768957
H    1.36208808  -3.10863441  -0.62830198
O   -2.88292759  -0.90691185  -0.55921552
H   -3.05930800  -0.71376230   0.36155321
H   -2.02856949  -0.50979682  -0.72834193
O   -0.43936794  -1.74994043  -2.87849441
H   -0.10253244  -1.08526232  -2.27768104
H   -1.39074577  -1.69441555  -2.78888939
O    2.02145028   2.19549735  -0.21742425
H    2.03866819   2.15893377  -1.17377068
H    1.42632626   1.49100653   0.03899714
O    2.21870539   0.57482829   2.61321593
H    2.97626048   0.57251662   2.02812039
H    1.46236485   0.57608912   2.02654801
O   -0.89194710   2.71709404  -2.09100742
H   -0.78518513   1.82410140  -1.76329126
H   -0.60731232   3.27422699  -1.36656434
O   -3.01886314  -0.19526422   2.08549292
H   -2.26437640  -0.76887104   2.21949593
H   -2.63926811   0.64277124   1.82122784
O    2.52828974  -2.06889859   0.39774551
H    1.96479756  -1.41306284  -0.01284905
H    2.23896436  -2.09678030   1.30974621
O    3.97826611   0.35618559   0.54034844
H    3.58417484  -0.50267746   0.38777657
H    3.34907417   0.97747089   0.17380522
O   -1.71388107  -3.33401577   0.12488044
H   -0.87642665  -3.42455310  -0.32976770
H   -2.08993666  -2.52566485  -0.22351995
O   -0.75319442  -1.67663606   2.05265848
H   -0.37781484  -0.98766518   1.50435095
H   -1.04574667  -2.34434299   1.43232593
O   -1.76594737   1.96044029   1.01410507
H   -2.34510907   1.96778077   0.25203572
H   -1.05361409   1.37011184   0.76849265
O   -3.38375356   1.82575262  -1.21577836
H   -3.24554150   0.88275599  -1.12697158
H   -2.59320683   2.14418683  -1.65151609
O   -0.04172786   3.91524018   0.20872164
H   -0.66923876   3.31956168   0.61814690
H    0.75968772   3.39866380   0.12437854
O    1.74184846  -2.04319022   3.03275620
H    1.99414306  -1.11992067   3.02040210
H    0.82051258  -2.04370397   2.77319544
C    0.13827091  -0.26775030  -0.39416534
O    1.30832972  -0.34371013  -1.10279138
O   -0.80174549   0.39880371  -1.13522789
O    0.35798028   0.40618007   0.77857754
