52
Energy:  -1532.60454736
O    0.95581512   0.65401948  -3.72679436
H    1.20822442   0.19844241  -2.92369355
H    0.34051585   1.32768673  -3.43729291
O    0.03385608  -3.04503721  -1.94961502
H   -0.42769767  -2.61487248  -2.66944714
H    0.38512347  -2.32518156  -1.42554354
O   -3.11171001  -0.89817175  -0.00339770
H   -3.03184827  -0.73450733   0.93631923
H   -2.25313462  -0.67093736  -0.36039165
O   -1.13634571  -1.10678590  -3.49351470
H   -1.15712215  -0.85102900  -2.57134953
H   -0.40519588  -0.61196325  -3.86338268
O    1.53944951   2.35945539  -0.48721483
H    1.20645808   2.70534377   0.34086113
H    1.22477791   1.45584542  -0.51372267
O    2.10088796   0.90064912   2.38464913
H    2.85659053   1.07652071   1.82410059
H    1.42341181   0.59044558   1.78379001
O   -0.70409644   2.14458171  -2.07224979
H   -0.73599650   1.24792542  -1.73875055
H    0.04845554   2.53822003  -1.63072261
O   -2.56363030  -0.36775506   2.61304381
H   -1.83664229  -0.98262498   2.51478259
H   -2.23528431   0.45280352   2.24547833
O    3.18763620  -1.34460614   0.25663340
H    2.41946595  -1.02803042  -0.21868345
H    2.84598430  -1.62393171   1.10603499
O    3.92034068   1.28216013   0.40361760
H    3.77990912   0.34460857   0.27130014
H    3.17660651   1.69986945  -0.03067522
O   -1.89643647  -3.38970035   0.00591801
H   -1.22977062  -3.31498206  -0.67687454
H   -2.39496878  -2.57486444  -0.05523609
O   -0.49741655  -2.03794449   1.96964189
H   -0.21163521  -1.31452017   1.41177262
H   -0.92668936  -2.64825719   1.37007946
O   -1.58496760   1.76899847   1.23113013
H   -2.19465180   1.89697378   0.50439817
H   -0.94272127   1.14225332   0.89805053
O   -3.25175853   1.82637610  -0.92148342
H   -3.28438055   0.88414401  -0.75605573
H   -2.43884294   1.95628434  -1.40987256
O    0.63568191   3.17726055   1.97568321
H   -0.20900230   2.78296356   1.75826584
H    1.17447296   2.44307475   2.27048358
O    2.14604177  -1.81346633   2.78736127
H    2.17978308  -0.85686123   2.78760178
H    1.24754184  -2.02184661   2.53141718
C    0.20190405  -0.54492995  -0.43768697
O    1.27535621  -0.26089685  -1.24017313
O   -0.95343427  -0.16849797  -1.07060965
O    0.32069589   0.14059475   0.74287416
