52
Energy:  -1521.22620203
O    0.86975442  -0.68282174  -3.09673147
H    0.78993979  -0.99228813  -2.19446098
H    0.19142979  -0.01280901  -3.18152818
O   -1.48168929  -3.04314406  -1.24590857
H   -1.29689613  -2.11467782  -1.10436782
H   -0.73626645  -3.49857988  -0.85455852
O   -2.96789016  -0.06782331   0.83736433
H   -2.53606421   0.04879512   1.68362572
H   -2.25605870  -0.27178264   0.23079331
O   -0.51280791  -2.94526124  -3.81353716
H   -0.96586041  -3.04112389  -2.97581070
H    0.03715111  -2.16986071  -3.70159550
O    2.29028908   0.85584323  -1.31238811
H    2.09000891   0.35502772  -2.10314946
H    1.63429597   0.57177028  -0.67582904
O    2.35200540   1.05960554   2.11067752
H    1.63418641   0.80539579   1.53072481
H    3.13950702   0.73380042   1.67487473
O   -1.03837163   1.26583519  -2.64425424
H   -0.99920040   0.60724384  -1.95074513
H   -0.40115249   1.92980236  -2.38094606
O   -0.97002218   0.10295639   2.76670198
H   -0.60264504  -0.06307155   1.89854265
H   -0.68484333   0.99092043   2.98216600
O    4.07831260  -0.29064118   0.46784837
H    3.53615880   0.08505630  -0.22580321
H    3.57652189  -1.04181125   0.78436290
O    0.15574884   2.62046736   2.95637864
H    1.00696066   2.22570230   2.76708828
H   -0.24874462   2.74206153   2.09740731
O   -3.70166708  -2.69798165   0.36554093
H   -2.96773057  -2.91531699  -0.20920631
H   -3.54809363  -1.78724382   0.61694430
O    1.40993363  -0.93933138   3.70024566
H    1.88507281  -0.23900942   3.25300550
H    0.49218268  -0.78973888   3.47311767
O   -0.86043778   2.59982857   0.40397718
H   -1.71426614   2.48387949  -0.01287387
H   -0.45697650   1.73248207   0.36990531
O   -3.13550859   2.02232511  -0.96649541
H   -3.19746470   1.27975661  -0.36567489
H   -2.52455898   1.73253719  -1.64398739
O    0.78055637   3.07357172  -1.70679199
H    1.39956859   2.35488771  -1.57814904
H    0.22438012   3.05356366  -0.92801121
O    2.39882315  -2.22809948   1.45584338
H    1.78910691  -1.95529329   0.77023799
H    2.00729227  -1.90538320   2.26750194
C   -0.06101980  -0.74975490   0.05560240
O    0.90889362  -1.48043691  -0.57869260
O   -1.07818179  -0.48195345  -0.82232849
O    0.47604806   0.42772413   0.50602605
