52
Energy:  -1521.09163633
O    1.48391078   0.01271354  -2.54762319
H    1.30788671  -0.34234078  -1.67631165
H    0.73059302   0.57264921  -2.73528309
O   -1.00436157  -2.82807383  -1.46018405
H   -0.90468199  -1.93056008  -1.14274919
H   -0.22582858  -3.28372149  -1.14002249
O   -3.02255691  -0.41308382   0.52715118
H   -2.94322844  -0.02011487   1.39635441
H   -2.12599228  -0.43934368   0.19291456
O    0.75887203  -2.42414506  -3.50865527
H   -0.01371987  -2.54555065  -2.95675465
H    1.08006452  -1.55108341  -3.28319887
O    2.18259821   1.76910616  -0.57904954
H    2.22017290   1.26651422  -1.39281937
H    1.54514638   1.30284405  -0.03822919
O    1.77866539   0.47829778   3.06096561
H    1.20590301   0.61987321   2.30722062
H    2.34451510  -0.24805388   2.79931848
O   -0.77709522   1.55173789  -2.33045542
H   -0.71701272   0.84942259  -1.68286361
H   -0.42113900   2.32035489  -1.88463603
O   -2.57280374   0.91846693   2.88283367
H   -1.87608463   0.29128462   3.07637098
H   -2.17203350   1.54352942   2.27875424
O    3.43733852  -1.05025406   1.53396326
H    3.76187750  -0.15587742   1.42909805
H    2.65504816  -1.08775616   0.98364769
O    3.78482698   1.69169759   1.62055226
H    3.09293817   1.47302713   2.24481579
H    3.33055016   1.79108762   0.78390057
O   -3.50692476  -3.00753458  -0.31479291
H   -3.48961204  -2.13299381   0.07393651
H   -2.65968889  -3.09262353  -0.75203780
O   -0.58663159  -0.91778504   3.19243980
H    0.20713813  -0.46474458   3.47689685
H   -0.51851686  -0.94493713   2.23805257
O   -1.49835580   2.44511614   0.87864976
H   -2.13731677   2.22290094   0.20146356
H   -0.84898835   1.74319667   0.83548951
O   -3.22805905   1.74738122  -1.12093264
H   -3.27623273   0.92618467  -0.63149687
H   -2.45431533   1.65083200  -1.67611798
O    0.22837590   3.62524687  -0.86914523
H    0.99179985   3.06010636  -0.75068882
H   -0.38162800   3.35124740  -0.18427197
O    1.62833684  -3.48567240  -1.09920543
H    1.54595789  -3.21713758  -2.01426532
H    1.55517888  -2.67075137  -0.60243237
C    0.15083278  -0.50050761   0.35864254
O    1.32963092  -1.02220880  -0.10527686
O   -0.73187039  -0.37159574  -0.68122073
O    0.38408810   0.72963691   0.91552370
