52
Energy:  -1524.24618462
O    2.15368446   0.22307495  -2.31205269
H    1.73392023  -0.17086850  -1.54730541
H    1.46113166   0.73634825  -2.72816923
O    0.63397329  -3.27672216  -0.78890241
H    0.55119121  -3.08070703  -1.72215320
H    0.75376907  -2.42249282  -0.37396499
O   -2.89997249  -0.83386279  -0.67104592
H   -3.02608506  -0.52651692   0.22665446
H   -1.97038533  -0.68772238  -0.84638146
O    0.43176490  -1.88361141  -3.13719045
H   -0.04538181  -1.40988702  -2.45590632
H    1.28032766  -1.44341214  -3.18615673
O    1.90131110   2.00481520  -0.23998366
H    2.25138678   1.51392888  -0.98342800
H    1.17752232   1.46792845   0.08268375
O    0.76260844   1.52649492   3.03591302
H    0.32745984   1.30413366   2.21284983
H    1.68150759   1.64722320   2.79657877
O   -0.19275988   1.59184592  -2.86850107
H   -0.27203520   0.91749035  -2.19382200
H   -0.06630209   2.40565880  -2.38070104
O   -2.48071465  -0.08399135   1.91580640
H   -2.26703717  -0.93192951   2.30513231
H   -1.67922734   0.18196109   1.46511889
O    3.26965416  -1.08579725   1.84745280
H    2.83480463  -0.98232311   1.00103043
H    2.55673143  -1.24769949   2.46532066
O    3.32809001   1.62944088   2.04621088
H    3.40187114   0.67519160   2.03219243
H    2.87631008   1.84721631   1.23091915
O   -1.94730189  -3.29751477   0.16633931
H   -1.04967596  -3.32060970  -0.16527217
H   -2.30200985  -2.47001462  -0.15871087
O   -1.67850372  -2.55565554   2.79858585
H   -0.81586562  -2.14305244   2.84155134
H   -1.74635661  -2.87691350   1.89946341
O   -1.89600002   2.50554731  -0.25019346
H   -2.36851304   2.10153642  -0.97802482
H   -1.30901317   1.81859090   0.06566913
O   -2.95391138   1.27442326  -2.46269276
H   -2.99890387   0.49641362  -1.90689737
H   -2.03839063   1.31980575  -2.73836291
O    0.19783005   3.80750175  -1.31910432
H   -0.61143455   3.51155831  -0.90228286
H    0.88579917   3.28753954  -0.90368930
O    0.70071442  -1.18769902   2.81406446
H    0.64268565  -0.30895430   3.18912744
H    0.63448167  -1.05016596   1.86911487
C   -0.02356528  -0.44547515   0.04718177
O    1.30528704  -0.77880088   0.04521891
O   -0.46654703  -0.32773282  -1.24394281
O   -0.19380185   0.74751754   0.69953763
