52
Energy:  -1521.32436790
O    0.16001781   0.50379631  -3.52667154
H    0.94399106   1.00330143  -3.29839010
H   -0.22830382   0.26829828  -2.68406912
O   -0.10761194  -2.67350049  -1.62176043
H   -0.22442501  -1.74450488  -1.42287929
H    0.68668902  -2.92210889  -1.14899020
O   -2.96380859  -0.38517562  -0.10445116
H   -2.98831610  -0.29327802   0.84801200
H   -2.04723613  -0.23584224  -0.33645617
O    0.32641569  -2.12624982  -4.29263027
H    0.29763193  -1.17600797  -4.18107863
H    0.18699878  -2.47554883  -3.41241156
O    2.00366805   1.85922249  -1.99319385
H    1.23017938   2.39303967  -1.81157242
H    1.84137408   1.03662752  -1.53142547
O    2.60447029   0.25166907   1.96395633
H    2.14222683   0.92406779   2.46439892
H    2.03183429   0.07121376   1.21846606
O   -0.39992765   2.65778254  -0.96395440
H   -0.39483904   1.70211043  -0.91013257
H    0.01229181   2.94620946  -0.14963452
O   -3.07862563  -0.24229576   2.65688811
H   -2.29799705  -0.79618683   2.64943477
H   -2.74686164   0.64209359   2.50190429
O    2.16249270  -2.71674998  -0.05246924
H    1.92699446  -1.81553811  -0.27289971
H    2.07088077  -2.76280828   0.89922280
O    3.62565751   2.18542001   0.20763300
H    3.42139469   1.40056264   0.71606929
H    3.15373050   2.06693541  -0.61667165
O   -2.13208305  -2.97728123   0.18297005
H   -1.41356313  -2.99296374  -0.44926015
H   -2.55724688  -2.13133009   0.04213597
O   -0.83627438  -1.70493742   2.25589181
H   -0.49489401  -0.96456692   1.75435136
H   -1.23548113  -2.27583560   1.59943077
O   -2.00214457   2.06388185   1.82585800
H   -2.46199797   2.27819081   1.01416941
H   -1.25159878   1.54019474   1.54538576
O   -3.10519022   2.31865733  -0.65575922
H   -3.15599298   1.36438489  -0.60084986
H   -2.19385753   2.49752881  -0.88751248
O    1.19904010   2.80121439   1.29336262
H    0.77839669   1.95134057   1.16295770
H    2.06371674   2.70477336   0.89428207
O    1.80909704  -2.30541336   2.66483712
H    0.86398080  -2.18183010   2.57700595
H    2.18156728  -1.44164626   2.48762490
C    0.22571646  -0.27497774  -0.02251117
O    1.53212093  -0.12481012  -0.40684880
O   -0.59774127   0.04112457  -1.07088872
O   -0.03796261   0.55790561   1.03321553
