52
Energy:  -1530.20171604
O    0.85452716  -0.94204507  -2.71800544
H    0.89708156  -0.97213031  -1.76222521
H    0.08420299  -0.40628145  -2.90718752
O   -2.08453349  -2.40523476  -1.69298992
H   -1.65140717  -1.68228735  -1.23913919
H   -1.36679617  -2.94356921  -2.02657798
O   -2.57896098  -0.35614627   1.48196015
H   -2.29829899   0.26306682   2.15578197
H   -1.82791002  -0.42631441   0.89269728
O    0.26724794  -3.62823066  -2.33024839
H    0.29546228  -3.66702057  -1.37425093
H    0.53772919  -2.73485613  -2.54227122
O    2.08527944   1.25685695  -1.55719224
H    1.91499941   0.56605342  -2.19752578
H    1.57105629   1.00509973  -0.79010378
O    3.06460620  -0.84072002   1.80158204
H    2.53341396  -0.41563804   2.47491106
H    2.45553176  -1.00018528   1.08058897
O   -1.22920349   0.92714299  -2.44363136
H   -1.00353680   0.42327013  -1.66169880
H   -0.77954802   1.76417670  -2.32780226
O   -1.50935454   1.64207918   3.06872556
H   -0.64360706   1.25094251   3.18588046
H   -1.46472466   2.07242021   2.21488330
O    4.20610908   1.07806459   0.22366413
H    3.90051393   0.35866302   0.77620809
H    3.55588332   1.13589566  -0.47640293
O    2.34702705   2.50756575   1.65254675
H    3.14285891   2.16992761   1.24159178
H    1.63518765   2.03414078   1.22198280
O   -2.64826774  -3.08646642   0.87368623
H   -2.56899510  -2.94084465  -0.06904491
H   -2.64335933  -2.20785433   1.25348689
O    1.05624701   0.57857915   3.12518112
H    1.56915830   1.37050314   2.96390419
H    0.77122749   0.29612676   2.25614926
O   -1.32484670   2.54969534   0.47275578
H   -2.10611699   2.16719322   0.07333031
H   -0.67657460   1.84568909   0.45403870
O   -3.40306951   1.23785794  -0.67931621
H   -3.22280770   0.59079635   0.00262868
H   -2.78076183   1.03129367  -1.37666562
O    0.13364844   3.19047144  -1.79456796
H    0.88423919   2.60387314  -1.70103830
H   -0.33680709   3.11242978  -0.96462041
O    0.07647973  -3.48791118   0.40717112
H   -0.83833640  -3.39841711   0.67425558
H    0.39267668  -2.58787333   0.32853780
C    0.24250629  -0.40972378   0.40508059
O    1.27855206  -1.13120648  -0.12692528
O   -0.85417108  -0.51744807  -0.40904042
O    0.60845306   0.90686606   0.50732707
