52
Energy:  -1524.16503035
O    1.75380593   0.57120467  -2.64649131
H    1.43780235   0.07530752  -1.89120355
H    1.05742329   1.20248363  -2.82751599
O   -0.34882623  -3.79707212  -0.78321938
H   -0.26172517  -3.11352999  -1.44761040
H    0.21091984  -3.50512264  -0.06371839
O   -3.01389079  -0.33921009  -0.32644280
H   -3.10956778  -0.02967462   0.57426001
H   -2.08163503  -0.23655204  -0.51773413
O   -0.22557854  -1.82468923  -2.74505749
H   -0.37300386  -1.19011900  -2.04375994
H    0.63162982  -1.59273390  -3.10230027
O    2.08800736   1.87513975  -0.23422243
H    2.24208042   1.53289515  -1.11476884
H    1.42615263   1.29203354   0.13748622
O    1.98403014  -0.47278846   2.67880225
H    1.35657726  -0.05039452   2.09218646
H    1.98194350  -1.39174147   2.41093500
O   -0.44449919   2.27603613  -2.43002142
H   -0.47214343   1.46863421  -1.91663093
H   -0.15602363   2.94527630  -1.80943195
O   -3.02008958   0.56985987   2.25805848
H   -2.38906526  -0.12073979   2.46082009
H   -2.49166229   1.27627711   1.88661383
O    3.97535212  -1.04483694  -0.17100478
H    4.10408181  -0.33074386   0.45328008
H    3.03470991  -1.04200168  -0.34825050
O    3.94243921   1.05587641   1.59006465
H    3.34813420   0.51071006   2.10564883
H    3.38343565   1.45764461   0.92498632
O   -2.58671321  -2.90121626   0.51031018
H   -1.84882054  -3.24631440   0.00766365
H   -2.78527065  -2.06026630   0.09847289
O   -1.20573433  -1.47409278   2.39056571
H   -0.70754976  -0.87406415   1.83557957
H   -1.71026832  -2.00670293   1.77574563
O   -1.55517532   2.35287412   0.80966505
H   -2.08228518   2.27707111   0.01427775
H   -0.92394157   1.63591376   0.74847973
O   -3.03276238   2.13802772  -1.50313886
H   -3.11066909   1.22298968  -1.23319854
H   -2.19608155   2.18126349  -1.96609426
O    0.32713574   3.91234386  -0.38184207
H    1.05515914   3.29581259  -0.30372054
H   -0.38002278   3.51421634   0.12575339
O    1.05475616  -2.80142635   1.41784583
H    0.30225069  -2.54029948   1.94867548
H    1.15149981  -2.09781957   0.77612158
C    0.05086069  -0.43940260  -0.02130960
O    1.28287911  -0.86931687  -0.43875747
O   -0.59913775   0.16560476  -1.06465370
O    0.20359373   0.45708317   1.00375922
