52
Energy:  -1522.75090832
O    1.23961585   1.38746280  -2.87475223
H    1.23510223   0.62536097  -2.29560434
H    0.41147914   1.83180385  -2.69314149
O    0.36409918  -2.73830502  -2.65613925
H   -0.00961990  -2.14110107  -3.30414646
H    0.62949590  -2.17124214  -1.93209773
O   -2.75114528  -1.39359231  -0.15380219
H   -2.44081195  -1.62476468   0.72168877
H   -1.99383368  -0.99029502  -0.57813964
O   -0.63109673  -0.47651775  -3.83390977
H   -0.81342627  -0.47701803  -2.89423561
H    0.12375814   0.10389884  -3.93159581
O    1.90442683   2.01712012  -0.26996378
H    1.94355996   1.98766122  -1.22590971
H    1.36781144   1.26219910  -0.02836491
O    1.69082965   0.42295344   2.78323767
H    2.56420926   0.64025429   2.45732319
H    1.16167366   0.30864230   1.99383362
O   -1.17599057   2.28671145  -1.84696068
H   -0.97919518   1.38867490  -1.58043904
H   -0.85748297   2.82692654  -1.12380620
O   -0.96450082   0.53121765   3.71848515
H   -0.01766616   0.57041063   3.58357825
H   -1.33447944   0.96864167   2.95166842
O    2.98779167  -1.73014119   0.63064823
H    2.34115448  -1.35758041   0.03123963
H    2.47053172  -2.06891727   1.36133610
O    3.89344683   0.78324734   1.18935299
H    3.70171730  -0.12909578   0.97232378
H    3.29205923   1.29100128   0.64460467
O   -2.05554051  -3.63693407  -1.65215048
H   -1.19066434  -3.38353888  -1.97465931
H   -2.34431282  -2.89018081  -1.12755352
O   -1.05812063  -1.67628942   2.05518927
H   -0.61110445  -1.23189234   1.33482851
H   -1.13593161  -1.00926595   2.73728676
O   -1.72313945   1.58676190   1.30674316
H   -2.45726742   1.48982097   0.70020345
H   -1.03633555   1.02762636   0.94356318
O   -3.55501304   1.24306464  -0.66981680
H   -3.36844976   0.31024675  -0.56362468
H   -2.84036788   1.57004664  -1.21625702
O   -0.20745136   3.61854787   0.32305881
H   -0.77265780   3.00035504   0.78632022
H    0.60429386   3.13444813   0.17156956
O    1.50019317  -2.29315860   2.90562957
H    1.68999997  -1.35864200   2.98859916
H    0.60594343  -2.32718352   2.56593625
C    0.17787524  -0.62173797  -0.45202162
O    1.35306339  -0.62628250  -1.15620238
O   -0.82868509  -0.13991940  -1.24687126
O    0.31087824   0.17826022   0.65255672
