52
Energy:  -1527.32903362
O    1.47029352  -0.42079578  -2.95336444
H    1.38186779  -0.62226083  -2.02179341
H    0.70708642   0.12045297  -3.15534602
O   -0.78543079  -2.99618759  -0.70955308
H   -0.68327237  -2.04526547  -0.74882921
H   -0.03178606  -3.29777305  -0.20230790
O   -2.90832113  -0.04711136   0.37065918
H   -2.78096136   0.54121999   1.11488869
H   -2.03201511  -0.16245095   0.00321341
O    0.31204923  -2.93231739  -3.26958771
H   -0.12001222  -3.01837042  -2.41979383
H    0.74956287  -2.08181721  -3.23133709
O    2.22680865   1.65427734  -1.22083256
H    2.29145893   1.05046776  -1.96074214
H    1.64886259   1.21142272  -0.59947116
O    1.68199054  -1.90830799   3.28411628
H    0.84927259  -1.44127049   3.21564266
H    2.29302113  -1.38705793   2.76337465
O   -0.72819363   1.22060492  -2.86237786
H   -0.65762961   0.64636951  -2.09981228
H   -0.32997096   2.04408416  -2.58036278
O   -2.33363177   1.61525986   2.45087791
H   -1.70000442   0.94322399   2.70210695
H   -1.89717143   2.10909569   1.75671626
O    3.18887786  -0.36126736   1.60664414
H    3.08469926   0.57443061   1.77940980
H    2.55794190  -0.54869307   0.91164538
O    2.49100990   2.27477784   1.57256536
H    1.67290890   1.79294736   1.45098415
H    2.85221476   2.36086178   0.69032251
O   -2.26180999  -2.37974869   1.56950950
H   -1.71138215  -2.72946582   0.86882485
H   -2.65160610  -1.58907418   1.19651532
O   -0.63712504  -0.49795261   2.83682791
H   -0.19888478  -0.16254259   2.05472981
H   -1.17688137  -1.22126425   2.51789966
O   -1.25251975   2.65604915   0.16420151
H   -1.92014781   2.34921933  -0.44928044
H   -0.65005604   1.91747636   0.25240335
O   -3.11396547   1.75647645  -1.64859861
H   -3.18099911   1.03743960  -1.02032769
H   -2.36843250   1.52313408  -2.20173853
O    0.37732110   3.50094773  -1.83313271
H    1.12287146   2.93278032  -1.63929696
H   -0.21545918   3.38049813  -1.09128684
O    1.45217890  -3.24420457   0.86027088
H    1.49291071  -2.97364375   1.77753290
H    1.45767419  -2.42358635   0.36753629
C    0.28548420  -0.39788341   0.14909630
O    1.45938344  -0.88095883  -0.36622602
O   -0.65020649  -0.31332413  -0.84811554
O    0.49900868   0.84621854   0.68238595
