52
Energy:  -1522.79863821
O    1.89176403  -1.13801386  -1.99986716
H    1.43183294  -0.89160371  -1.19738521
H    1.19881491  -1.42169840  -2.59616948
O   -0.50791874  -2.96277027  -0.66305400
H   -0.48291138  -2.01311948  -0.54570896
H    0.38645005  -3.25079253  -0.48035342
O   -2.81047333  -0.02017813   0.46298877
H   -2.66900494   0.51852222   1.24146194
H   -1.93471680  -0.15146728   0.09960810
O   -0.32588015  -2.04022446  -3.32498849
H   -0.50320598  -2.39836517  -2.45520540
H   -0.61403353  -1.12893093  -3.27260932
O    2.07254545   1.49841909  -1.23622499
H    2.15948362   0.66076235  -1.69120279
H    1.42571828   1.33296718  -0.55031528
O    1.27938829  -0.44710427   3.30226859
H    1.50270662   0.48188694   3.36002756
H    1.11197379  -0.59627742   2.37170338
O   -0.89165319   0.65890422  -2.89381664
H   -0.68882101   0.32360861  -2.02050810
H   -0.42857542   1.49516884  -2.94333748
O   -1.70132491   1.25482184   2.58643126
H   -1.59350112   0.45213576   3.09662821
H   -1.00488592   1.21783782   1.93081189
O    3.66055478   0.65549500   0.84196806
H    2.95604495   0.02930325   1.00864632
H    3.36214617   1.15592451   0.08252454
O    1.98938890   2.09216453   2.46701620
H    1.26131229   1.85854312   1.89120605
H    2.75965030   1.70877381   2.04756325
O   -2.22916547  -2.48564130   1.50656838
H   -1.58631520  -2.77830760   0.86056387
H   -2.52943994  -1.63775298   1.17922685
O   -1.30299002  -1.18969373   3.79676624
H   -0.37848211  -0.98040834   3.66366252
H   -1.54960997  -1.69185070   3.02007530
O   -1.27577187   2.97811985  -0.52077216
H   -2.02542165   2.49407085  -0.86711538
H   -0.74376546   2.31454180  -0.08160794
O   -3.23449056   1.47865195  -1.74891837
H   -3.22001821   0.93284521  -0.96271395
H   -2.48600899   1.17745533  -2.26397932
O    0.38747783   3.06287592  -2.64700216
H    1.09854114   2.57343015  -2.23340374
H   -0.24571496   3.20663052  -1.94370041
O    2.16657527  -3.19170096  -0.15647374
H    2.30574332  -2.71933045  -0.97728444
H    1.90097695  -2.51593997   0.46725414
C    0.10997886  -0.13604687   0.56473986
O    1.33295372  -0.74781599   0.64858139
O   -0.45976210  -0.41906938  -0.64868187
O    0.26815545   1.21928592   0.69057071
