52
Energy:  -1523.64029555
O    0.87754605   0.63786265  -2.93770828
H    1.03300954   0.26108951  -2.07162229
H    0.41670473   1.45848054  -2.76322790
O    0.66277680  -2.85065677  -2.02015331
H    0.01711602  -2.40779098  -2.57081100
H    1.00012231  -2.16329742  -1.44572580
O   -2.49043058  -0.56419637  -1.08526277
H   -2.75018591  -1.29552324  -0.52497711
H   -1.64649938  -0.28054503  -0.73376043
O   -1.08898200  -1.22243055  -3.37380090
H   -1.63786585  -1.05179039  -2.60839885
H   -0.38522721  -0.57644551  -3.31326685
O    1.75993205   2.22808417   0.56476309
H    2.60865325   1.80264147   0.44268652
H    1.11940981   1.56139710   0.31678839
O    1.41084227   0.64930939   2.75576137
H    1.58333485   1.38142180   2.16373976
H    0.93055967   0.01671032   2.22155272
O   -0.71684595   2.64028713  -1.81506376
H   -0.55024006   1.86151923  -1.28403185
H   -0.50246694   3.37399312  -1.23891361
O   -2.08927956  -0.40075361   2.22205077
H   -1.23271787  -0.59641540   1.84224768
H   -2.24448981   0.51813591   2.00345602
O    2.37755826  -2.65852611   0.94727645
H    1.93032263  -1.85517736   0.68111310
H    1.68344430  -3.31613791   0.99182289
O    3.84639712   0.48739870   0.27588261
H    3.91146993   0.04200268   1.12064280
H    3.06714886   0.11189999  -0.13400117
O   -2.92292547  -2.54123562   0.75936684
H   -2.07288851  -2.95884703   0.62055135
H   -2.73722995  -1.80830587   1.34636173
O   -0.33264864  -3.44366328   0.47663625
H   -0.08526157  -3.44490808  -0.44804204
H   -0.15760197  -2.54972731   0.77069233
O   -2.00788790   2.15407771   1.14839139
H   -2.63262905   2.17608255   0.42351476
H   -1.30029824   1.58893183   0.83829647
O   -3.33526514   2.03440292  -1.24326891
H   -3.21741755   1.08535959  -1.20251910
H   -2.49912808   2.36623524  -1.57036826
O   -0.20886837   4.14404218   0.43638398
H   -0.90044564   3.58518359   0.79082693
H    0.58379152   3.61052679   0.49368557
O    3.62410398  -0.90375857   2.63758847
H    2.86335801  -0.34530297   2.79766586
H    3.28338890  -1.62923683   2.11430425
C    0.23574465  -0.52249820  -0.11067487
O    1.53024326  -0.50460879  -0.55890661
O   -0.27815420   0.74696657  -0.14896265
O    0.20522981  -0.98943832   1.17727543
