52
Energy:  -1524.63291498
O    1.27142951  -0.57786821  -2.70349033
H    1.15840311  -0.75218985  -1.76910880
H    0.55069467   0.01118525  -2.92662516
O   -1.10436386  -3.04204265  -0.50482695
H   -0.94428290  -2.09859230  -0.48230194
H   -0.24733442  -3.43489668  -0.33930325
O   -3.00810215  -0.05303290   0.61112035
H   -2.87086447   0.54942029   1.34217974
H   -2.13277287  -0.19774407   0.25183052
O    0.13709433  -3.04804021  -2.97245327
H   -0.49308507  -3.00573397  -2.25320647
H    0.54103729  -2.18040562  -2.98895051
O    2.18096826   1.42758144  -1.04728644
H    2.13835307   0.80131987  -1.76992898
H    1.57763043   1.07847830  -0.39128162
O    2.74556551  -0.91851091   2.12301974
H    2.47156359  -0.12028744   2.57467679
H    2.12558885  -1.00969776   1.39945513
O   -0.83177043   1.15605425  -2.62192218
H   -0.77273686   0.57882112  -1.86064116
H   -0.38935973   1.95968280  -2.34863521
O   -2.46290244   1.68943397   2.63499566
H   -1.86253221   0.99978540   2.91814277
H   -1.98629953   2.15536287   1.94797910
O    4.19104186   0.91460819   0.71493991
H    3.83221088   0.13848716   1.14518208
H    3.56705503   1.11184030   0.01639014
O    2.21161225   1.77971412   2.45593978
H    1.48740884   1.46071217   1.91742420
H    2.98077335   1.70778641   1.89074118
O   -2.47935635  -2.41852740   1.83836982
H   -1.93665993  -2.78520512   1.14032978
H   -2.82134754  -1.60259058   1.47296457
O   -0.86410526  -0.45251123   3.06704531
H   -0.34120071  -0.21854998   2.30019147
H   -1.34885762  -1.23280544   2.79799525
O   -1.25395054   2.62303044   0.37276419
H   -1.94158612   2.33117862  -0.22574368
H   -0.67623915   1.86511040   0.46242247
O   -3.18466245   1.76617175  -1.39210731
H   -3.26179084   1.05033968  -0.76133991
H   -2.45065022   1.51423504  -1.95245166
O    0.41230480   3.37550712  -1.63204798
H    1.14035808   2.78578664  -1.43608875
H   -0.17490530   3.28964701  -0.88101923
O    1.54793611  -3.70288236  -0.69176975
H    1.24657885  -3.60529196  -1.59503703
H    1.57639563  -2.80908398  -0.35038087
C    0.16085999  -0.50693952   0.36121550
O    1.29641517  -1.10382335  -0.11961972
O   -0.77099812  -0.42561821  -0.63984697
O    0.46200900   0.75267622   0.80894051
