52
Energy:  -1521.13544668
O   -2.34306747  -1.78975543   1.40371920
H   -1.97174259  -1.07352220   0.88858849
H   -1.64165623  -2.43930140   1.45213562
O    1.75557471  -1.58374856  -2.18807666
H    0.96338879  -1.46969704  -1.66303801
H    2.44951570  -1.18105714  -1.66604470
O    0.18447536  -2.92288431   1.35693591
H    0.50880204  -2.36257238   2.06198527
H    0.02789367  -2.32376723   0.62702307
O    0.50728864   0.17112013  -3.88756486
H    0.93367692  -0.45469094  -3.30208609
H   -0.42797338   0.06186421  -3.71557665
O    0.84324836  -0.84533881   3.00590886
H   -0.04628131  -0.71971301   3.33634338
H    0.79966535  -0.57219238   2.08954463
O    3.17925225  -0.98358966   0.07575154
H    2.33067378  -0.57584546   0.24864195
H    3.00671382  -1.92414354   0.11842159
O   -2.22427596   0.11249669  -3.34988746
H   -2.09734344   0.87302170  -2.78268230
H   -2.37423376  -0.61489062  -2.74602306
O   -1.77311094  -0.37184641   3.65560889
H   -1.55570237   0.48154486   3.28052398
H   -2.05719309  -0.89737229   2.90771068
O    1.48262952   2.45602748   0.07599370
H    1.17296631   1.55339053   0.15074057
H    0.69844433   2.99005534   0.20287821
O    1.81153210   1.82711667   2.83879327
H    1.68767231   0.88049366   2.90804277
H    1.89195892   1.99051788   1.89907873
O   -1.60676817   2.17713163  -1.66043142
H   -1.43801559   1.45154557  -1.05936630
H   -0.75782964   2.35626059  -2.06471848
O   -0.85933438   1.81800988   2.33166992
H   -0.86660023   1.22749433   1.57836358
H    0.06273515   1.87650439   2.58186590
O    0.89070472   2.58267069  -2.64087768
H    0.86506650   1.71709698  -3.04874613
H    1.23609053   2.42388182  -1.76239798
O   -2.60443187  -1.92532867  -1.52366161
H   -3.08442514  -1.95186509  -0.69593332
H   -1.70813073  -1.70026895  -1.27421376
O   -0.91435350   3.76972581   0.44893217
H   -1.26550493   3.29582209  -0.30495096
H   -1.00069021   3.15685694   1.17911678
O    2.25468363  -3.56218189  -0.31862639
H    2.00161519  -3.03664166  -1.07757018
H    1.54170075  -3.43793405   0.30783169
C   -0.14420716  -0.10712675  -0.29816299
O   -1.33210237   0.33067928   0.22546781
O   -0.25900803  -1.42627927  -0.64995294
O    0.84618471   0.03169997   0.63865679
