52
Energy:  -1523.39310168
O    0.88781190   1.65388546  -2.67689757
H    0.91389850   0.84654297  -2.16333216
H    0.08731304   2.09420836  -2.39132942
O   -1.34802334  -1.40722018  -2.92111257
H   -1.06147867  -0.79780178  -2.24086760
H   -1.38142913  -2.25757490  -2.48291998
O   -2.94942216  -1.15286389   0.13121812
H   -2.84805481  -1.14766081   1.08302137
H   -2.15713451  -0.72754739  -0.19683372
O   -0.08358970   0.17926477  -4.80473046
H   -0.55448436  -0.45863403  -4.26847009
H    0.34677684   0.75390334  -4.17163726
O    1.78551115   2.05495695  -0.11776994
H    1.68041966   2.10343001  -1.06794781
H    1.31194521   1.26275032   0.13595395
O    2.48514167   0.20529562   2.54775232
H    3.17334566   0.44951083   1.92890982
H    1.68794810   0.17135584   2.01901577
O   -1.34172253   2.58100586  -1.32511085
H   -1.14484323   1.66162155  -1.14565928
H   -0.96692136   3.05590868  -0.58334051
O   -2.38382357  -1.02742665   2.79773929
H   -1.61073182  -1.56090656   2.61345643
H   -2.11106379  -0.13217008   2.59686714
O    3.18311034  -1.79300686  -0.07906764
H    2.39985162  -1.36465341  -0.42439495
H    2.92277848  -2.10728744   0.78677696
O    4.11807597   0.72577142   0.42215594
H    3.89185750  -0.16971995   0.17085480
H    3.35634221   1.24629720   0.16711392
O   -1.19130990  -3.13983539  -0.64770940
H   -0.49205212  -2.49332816  -0.74413973
H   -1.96360499  -2.62496098  -0.41383662
O   -0.21037897  -2.40415187   1.89537746
H    0.03211784  -1.56682471   1.50001640
H   -0.55010659  -2.92402965   1.16699289
O   -1.59113028   1.37444811   1.79344632
H   -0.91592568   0.88035283   1.32847271
H   -2.30365280   1.46156302   1.16023664
O   -3.60039619   1.55685123  -0.06927509
H   -3.48726229   0.60954936  -0.14706806
H   -2.92387339   1.92672227  -0.63650006
O   -0.19831777   3.56339360   0.94937350
H   -0.69764126   2.87833465   1.39389813
H    0.59109575   3.12093584   0.63746123
O    2.45564174  -2.49545542   2.49666172
H    2.55605597  -1.55398825   2.63733298
H    1.52289769  -2.61308048   2.31670415
C    0.09835387  -0.54057307  -0.28292322
O    1.16149238  -0.47996694  -1.14491032
O   -0.95833001   0.15271525  -0.81194995
O    0.45318919   0.01384882   0.91894553
