52
Energy:  -1525.04569386
O    2.25704331   0.93745008  -2.02966033
H    1.73042465   0.29218984  -1.55791479
H    1.96346024   1.78231723  -1.68871996
O   -1.12282367  -1.67816930  -2.37578174
H   -1.86994561  -1.09440525  -2.24440369
H   -0.46146935  -1.36401153  -1.75922095
O   -2.57915581   1.08123942   0.53391801
H   -2.64142956   0.66421663   1.39324672
H   -1.68909588   0.88991314   0.23825024
O    0.67595550  -0.25253984  -4.01782135
H    0.13913975  -0.86141219  -3.51053922
H    1.31863451   0.08011186  -3.39129251
O    3.15857274   0.29910995   0.49320096
H    3.18498167   0.55490373  -0.42880986
H    2.28261076  -0.06682384   0.61573634
O   -0.09239274   1.61350731   2.60134406
H   -0.50593809   2.32037623   2.10581563
H    0.13821039   0.96033489   1.94072327
O    1.28773429   2.99554989  -0.22928639
H    1.82102165   2.92677638   0.56261426
H    0.79695127   2.17432559  -0.26018150
O   -2.26629753  -0.09151739   2.98983854
H   -1.48611986   0.46295595   2.97916357
H   -1.97916632  -0.91732558   2.60018696
O    1.51931053  -3.30470811  -0.07260957
H    1.34426482  -2.41852469  -0.38926362
H    1.56861313  -3.21414895   0.87902069
O    2.52559935   2.37503816   2.12949969
H    1.65075007   2.12488907   2.42664614
H    2.82890944   1.62497510   1.61799187
O   -1.09312799  -3.82772979  -0.64306082
H   -0.15849504  -3.76537988  -0.44606949
H   -1.25107574  -3.13113442  -1.28027290
O   -1.24824962  -2.35932202   1.69408557
H   -0.67382786  -1.67488909   1.35083195
H   -1.40079973  -2.94057648   0.94903285
O   -0.86446055   1.54709781  -2.68766166
H   -0.34771649   0.99902364  -3.27827332
H   -0.57366079   1.29573645  -1.81102900
O   -3.11915246   0.21382611  -2.04157272
H   -2.40996506   0.74718239  -2.40048240
H   -3.10371925   0.39500316  -1.10180225
O   -1.21816745   3.50149844   0.98406064
H   -0.42403931   3.42995445   0.45446286
H   -1.75854234   2.76140009   0.70750818
O    1.33189114  -2.74738076   2.60695712
H    1.49223591  -1.87537324   2.24622967
H    0.38972130  -2.88057322   2.50299752
C    0.09693908  -0.38244021   0.03562618
O    0.73073811  -0.46887775   1.24714825
O    0.89342049  -0.92858521  -0.93619777
O   -0.14672527   0.93345795  -0.25902603
