52
Energy:  -1524.53008432
O    1.11526124   0.66161814  -3.53536959
H    1.36030163   0.35485119  -2.66239703
H    0.34548591   1.21145364  -3.38922336
O    0.92419058  -3.62984324  -1.55842966
H    0.51560787  -2.95939925  -2.10596676
H    1.51918348  -3.14367999  -0.98758766
O   -3.49264506  -0.34431745   0.06546724
H   -3.41192964  -0.17059647   1.00330405
H   -2.58955630  -0.40364946  -0.24620929
O   -0.32433367  -1.60812924  -2.95352413
H   -0.56705010  -1.20650920  -2.11924484
H    0.19736543  -0.94030708  -3.39858082
O    2.16622487   2.23548111   0.10792914
H    1.62002783   1.52066998  -0.21909637
H    2.12846370   2.14987931   1.06054568
O    2.24456243   0.58865288   2.41333053
H    2.94954707   0.40928597   1.79119227
H    1.44355401   0.52543799   1.89311784
O   -0.93105021   1.89277135  -2.12396101
H   -0.78883106   1.09974945  -1.60712271
H   -0.54760200   2.59427696  -1.59756839
O   -2.92708443   0.34842091   2.65563833
H   -2.26590897  -0.34353060   2.63884616
H   -2.51217788   1.08764452   2.21107915
O    2.49453662  -2.04792487   0.10224862
H    1.87426610  -1.38543613  -0.20206209
H    2.24843331  -2.20647577   1.01358096
O    4.05160443   0.19732399   0.41234482
H    3.60107334  -0.62109287   0.20390435
H    3.48761474   0.88070713   0.05021920
O   -1.27543871  -2.97764417  -0.00572303
H   -0.55566293  -3.39168473  -0.48187963
H   -1.19152168  -2.04559306  -0.20689584
O   -0.96287229  -1.53340684   2.31456734
H   -0.58729615  -0.82871692   1.78675437
H   -1.20850873  -2.20502738   1.67831232
O   -1.75429556   2.24818581   1.05278765
H   -2.35342831   2.16719627   0.31068760
H   -1.10533030   1.55845983   0.91366894
O   -3.43594653   2.06973383  -1.11674958
H   -3.59095656   1.18712841  -0.78028053
H   -2.61290810   2.00099926  -1.60060405
O   -0.00802050   3.78948863  -0.35416845
H   -0.63667989   3.34980682   0.21828165
H    0.81061487   3.31078946  -0.22411041
O    1.69807140  -2.06161160   2.75705580
H    1.97132740  -1.14443037   2.77553836
H    0.74999487  -2.02704546   2.62982401
C    0.16889746  -0.35144553  -0.09296142
O    1.15467642   0.07367055  -0.94412212
O   -1.03338501  -0.34997395  -0.74993440
O    0.10186137   0.49185214   0.98506242
