52
Energy:  -1521.11619693
O    0.45452288   0.95143248  -3.25984779
H    0.61830610   0.30602162  -2.57220564
H   -0.36780060   1.36997368  -3.00521235
O    0.24656174  -3.21122076  -2.08969099
H   -0.35324722  -2.83845371  -2.73583786
H    0.59993703  -2.45284361  -1.62469437
O   -3.77574793   1.03372821  -0.12527647
H   -3.50494101   0.13600103   0.06702897
H   -3.21142862   1.30473193  -0.84938457
O   -1.25433116  -1.34709535  -3.46990521
H   -1.24714320  -1.10426807  -2.54404609
H   -0.63868928  -0.74083001  -3.88180235
O    1.45448247   2.01744843  -0.89752763
H    1.34621618   1.84613328  -1.83302823
H    1.06579396   1.25572168  -0.46749803
O    2.06467054   0.95657017   2.30322819
H    2.79962039   1.18175130   1.73281253
H    1.38429994   0.64503676   1.70634073
O   -1.81944883   1.89653698  -1.94571835
H   -1.48987154   1.06681210  -1.60051221
H   -1.43031161   2.56336897  -1.37990992
O   -2.68376798  -1.41655674   0.58441181
H   -2.22024742  -1.46310438   1.42060190
H   -2.04037571  -1.05815649  -0.02700253
O    3.16266154  -1.39353484   0.26384732
H    2.36686927  -1.16370083  -0.21586388
H    2.85798417  -1.60728788   1.14572780
O    3.83530045   1.24618061   0.23365353
H    3.72592460   0.29578770   0.20168352
H    3.06931928   1.59146514  -0.22491305
O   -1.33762446  -3.78696876   0.11488765
H   -0.75704644  -3.62890026  -0.62954190
H   -1.89890431  -3.01240423   0.15019424
O   -0.34612855  -2.06870932   2.09492392
H   -0.13505177  -1.34905347   1.50013497
H   -0.51955820  -2.81319179   1.51881642
O    0.00661539   2.31151163   3.61155464
H   -0.66270466   2.11142474   2.95717878
H    0.80664770   1.91632601   3.26513226
O   -1.61078890   1.64628327   1.42859946
H   -2.42995977   1.44860524   0.97460129
H   -0.97384047   1.04105009   1.04883463
O   -0.62429375   3.59519307  -0.19876479
H   -1.00837877   3.04618028   0.48482537
H    0.19360968   3.15453279  -0.42916517
O    2.25947558  -1.70547581   2.86271862
H    2.26587613  -0.75007218   2.80445391
H    1.35735565  -1.95229304   2.65902096
C    0.06717648  -0.73023670  -0.42557948
O    1.11644753  -0.71823030  -1.30639984
O   -1.07712947  -0.34570718  -1.07349901
O    0.32442942   0.13852469   0.60245494
