52
Energy:  -1525.15183190
O    1.34356421   2.03394983  -2.18511488
H    1.27929971   1.18813370  -1.74160952
H    0.52469615   2.48052876  -1.97004697
O    0.44411552  -2.31655597  -2.36601122
H    0.10562678  -1.78044830  -3.08312055
H    0.62692255  -1.69139316  -1.66459486
O   -2.98020267  -0.86601695  -0.33604175
H   -3.03759034  -0.96474815   0.61432168
H   -2.11376540  -0.48788310  -0.48615205
O   -0.42431892   0.14090885  -3.44144148
H   -0.62979621   0.09486397  -2.50769055
H    0.30229815   0.76153574  -3.49695496
O    1.76584854   2.17700610   0.54680577
H    1.83648287   2.30471476  -0.39920329
H    1.23695828   1.38504047   0.64322882
O    1.98930732  -0.39691109   2.98394798
H    2.71457498   0.12352215   2.63845134
H    1.27002978  -0.24247333   2.37155869
O   -1.04664100   2.89377717  -1.10814922
H   -0.91005692   1.95315110  -0.99501552
H   -0.81634173   3.27342387  -0.26017370
O   -2.90908389  -1.01815568   2.39109193
H   -2.14959190  -1.58570038   2.25957476
H   -2.55775753  -0.12968836   2.33254748
O    2.83264600  -3.49052120  -1.46576369
H    2.03367948  -3.16787592  -1.88263824
H    2.92863636  -2.95088057  -0.68103082
O    3.93181449   0.76288288   1.39693644
H    3.73146751  -0.09220044   1.01624570
H    3.23328187   1.33592160   1.08084997
O   -1.70251371  -3.24229549  -0.84562951
H   -0.94920593  -2.97374838  -1.37159689
H   -2.21431194  -2.44130105  -0.73292497
O   -0.73470458  -2.44293948   1.65064423
H   -0.33198547  -1.62308024   1.36449744
H   -1.00254840  -2.87469430   0.83942335
O   -1.86567552   1.42125771   1.77997970
H   -2.45901210   1.57757814   1.04530463
H   -1.13367870   0.93670104   1.39838129
O   -3.51487882   1.85117811  -0.37473552
H   -3.40826386   0.90940498  -0.50863282
H   -2.73814679   2.24018092  -0.77672559
O   -0.33724506   3.64121722   1.41722862
H   -0.91480748   2.93122290   1.69751700
H    0.48750593   3.20746739   1.19841651
O    2.88342302  -1.66941248   0.66720547
H    2.53352576  -1.63111255   1.55733854
H    2.25781001  -1.17066856   0.14175831
C    0.11732715  -0.35361124  -0.20498724
O    1.31691533  -0.24454546  -0.85771325
O   -0.82570099   0.39886716  -0.85427374
O    0.25532528   0.09712769   1.08170275
