52
Energy:  -1523.31803254
O    0.88329633   1.55631059  -3.42386016
H    1.23298887   1.25439980  -2.58553036
H    0.01595688   1.90128114  -3.21184729
O    1.19651763  -2.97011171  -2.54303884
H    0.62942285  -2.28689594  -2.90060222
H    1.83906856  -2.49652316  -2.01476425
O   -3.24373046  -0.47054130   0.17494121
H   -3.18701326  -0.29760538   1.11467956
H   -2.34355736  -0.38611439  -0.13937128
O   -0.35346811  -0.86672432  -3.24806554
H   -0.56787000  -0.68947706  -2.33217958
H    0.13548729  -0.09501727  -3.53376240
O    2.29303795   0.91946339   2.22512341
H    2.93497876   0.96003076   1.51625239
H    1.44553885   0.90014711   1.78059669
O    1.62672014  -1.48881041   3.28562881
H    1.95197524  -0.64304019   2.97722371
H    0.70255305  -1.49587857   3.03643594
O   -1.33023567   2.14934782  -1.90639921
H   -1.09714000   1.29743002  -1.53743536
H   -0.83253678   2.78036048  -1.38644663
O   -2.96748077   0.22967074   2.81827812
H   -2.22845818  -0.37490512   2.75070969
H   -2.63106546   1.05884696   2.47839080
O    2.72726291  -1.44820958  -0.84686108
H    2.02823124  -0.79748484  -0.78248810
H    2.58148161  -2.03150866  -0.10205115
O    3.72824573   1.02152784  -0.10871196
H    3.72227267   0.09004284  -0.32901142
H    2.84196421   1.32155005  -0.31051281
O   -0.35871361  -2.77656569  -0.27056781
H    0.07523788  -3.03804573  -1.08269227
H   -0.46049201  -1.82790913  -0.34753372
O   -0.88036895  -1.40879261   2.22534375
H   -0.55900453  -0.64872355   1.74031613
H   -1.01400569  -2.08095833   1.55708758
O   -1.95874955   2.39572030   1.48200556
H   -2.56875211   2.31871892   0.74838474
H   -1.25887600   1.77530383   1.27830908
O   -3.68629244   2.06200354  -0.62272291
H   -3.68968404   1.13598098  -0.38043682
H   -2.91634333   2.16071592  -1.18278191
O    0.17683526   3.36168744  -0.02285984
H   -0.52689367   3.32655577   0.62503152
H    0.47740178   2.45618568  -0.10004899
O    1.97619486  -3.13207804   1.14360219
H    1.92417055  -2.56978791   1.91648971
H    1.12329098  -3.03682476   0.71967573
C    0.30059740   0.10386338  -0.07412486
O    1.12162993   0.90619632  -0.82187202
O   -0.82886182  -0.18901971  -0.79220574
O   -0.04747821   0.75614258   1.07963223
