52
Energy:  -1521.92960335
O    1.91626412   0.88569497  -2.98973446
H    1.65669501   0.22208852  -2.35060834
H    1.09049477   1.20153917  -3.35658494
O   -1.17262143  -2.53918354  -2.07330769
H   -1.99206256  -2.16929089  -1.74478448
H   -0.51107632  -1.87938579  -1.86532486
O   -3.04245508  -0.69118149  -0.79224959
H   -3.11611072  -0.87497850   0.14424673
H   -2.15787728  -0.34148761  -0.89933909
O   -0.67588297   1.47516486  -3.53988803
H   -0.67938379   0.86376953  -2.80339951
H   -0.83921124   2.33052216  -3.14249701
O    1.90145744   1.82275878  -0.41355318
H    1.98328240   1.74183679  -1.36381007
H    1.26818598   1.14797459  -0.16887911
O    2.22272271   0.42830945   2.56788712
H    2.97305669   0.40849752   1.97388522
H    1.45958493   0.37753756   1.99232236
O   -1.13564018   3.09258855  -1.29035672
H   -0.93793562   2.15824155  -1.22601040
H   -0.68630783   3.48507187  -0.54183209
O   -2.92475993  -0.89928145   1.94991158
H   -2.17332107  -1.49221227   1.94778167
H   -2.53936978  -0.02336274   1.92817019
O    2.41738884  -2.24756936   0.39219367
H    1.80084273  -1.63676429  -0.01156358
H    2.21527268  -2.20971199   1.32704538
O    3.89701970   0.11728973   0.43023381
H    3.49414139  -0.74499264   0.32830236
H    3.25280694   0.72718388   0.07071900
O    0.26474394  -3.96684441  -0.17652221
H    1.06891646  -3.45408375  -0.09519014
H   -0.23538710  -3.52194767  -0.86075001
O   -0.56371211  -2.26049857   1.79887644
H   -0.29797510  -1.45971937   1.34680525
H   -0.40361492  -2.95883909   1.16411565
O   -1.64918132   1.50029830   1.54598431
H   -2.29763860   1.72542359   0.87886094
H   -0.99895083   0.97404677   1.08069786
O   -3.50602277   2.01888713  -0.41911973
H   -3.41162606   1.09570904  -0.65377548
H   -2.75366038   2.44817740  -0.82641882
O    0.22256440   3.50497015   1.02663695
H   -0.39550114   2.85618817   1.36325065
H    0.89890217   2.98778532   0.58923677
O    1.81433440  -2.18062566   3.07982777
H    1.99602336  -1.24176953   3.03775486
H    0.91541339  -2.26557987   2.76209257
C   -0.10482057  -0.42597487  -0.43093620
O    0.93638955  -0.82503417  -1.22692084
O   -0.79236936   0.58394695  -1.05096308
O    0.38346260   0.02247870   0.76833406
