52
Energy:  -1531.33163147
O    0.88183768  -0.23345608  -3.01674400
H    0.95747208  -0.44526981  -2.08634289
H    0.02927199   0.19424458  -3.09696703
O   -0.75151130  -3.05128411  -0.77433791
H   -0.73046956  -2.09470176  -0.74714793
H    0.11855750  -3.31897552  -0.47844359
O   -2.51216585  -0.26840069   1.29848176
H   -2.22163030   0.36740638   1.95237037
H   -1.78968431  -0.31594256   0.67238908
O   -0.03447234  -2.80298399  -3.43247495
H   -0.36383690  -2.97414911  -2.55017492
H    0.33832150  -1.92275695  -3.38290737
O    1.82674728   1.98322210  -1.69401243
H    1.70935619   1.29999830  -2.35405517
H    1.40388418   1.63414334  -0.90943441
O    0.94693144   0.69589960   2.88766928
H    0.84882914   0.81949728   1.94356579
H    0.86403445  -0.24904428   3.01589174
O   -1.47874988   1.08520871  -2.53209558
H   -1.16384279   0.54559188  -1.80692040
H   -1.09745806   1.94848105  -2.37206662
O   -1.58487389   1.71936118   2.95010456
H   -0.69708153   1.37269946   3.03888647
H   -1.57529980   2.19360406   2.11869980
O    3.60239370   0.59224270  -0.07991717
H    2.83623445   0.02072501  -0.02893291
H    3.32559667   1.31500297  -0.64315144
O    3.64099938   1.24778010   2.59135129
H    2.71488854   1.11215082   2.79173907
H    3.71748353   1.04252559   1.65955056
O   -1.94395348  -2.90760200   1.68971906
H   -1.59482367  -3.07593470   0.81450233
H   -2.25387606  -2.00264909   1.65450421
O    0.56477261  -2.06634856   2.39621665
H   -0.32452193  -2.41396571   2.32876749
H    0.65961812  -1.49961805   1.63067586
O   -1.45336742   2.66325767   0.40179728
H   -2.21906033   2.23012226   0.02451765
H   -0.75563652   2.01052363   0.34398971
O   -3.53505638   1.30200073  -0.71253052
H   -3.29696829   0.64933844  -0.05406424
H   -2.93264137   1.14103283  -1.43876555
O   -0.37777769   3.52137045  -1.93591115
H    0.46797529   3.07552138  -1.88951776
H   -0.77055012   3.38118544  -1.07433710
O    1.74953915  -3.38401309   0.27080007
H    1.77933180  -2.52799758  -0.15649571
H    1.45688223  -3.19694497   1.16275819
C    0.30767448  -0.27938739   0.14695064
O    1.38818162  -0.85396915  -0.46893773
O   -0.80610794  -0.45004607  -0.63244857
O    0.54151080   1.05926014   0.32336940
