52
Energy:  -1522.19411632
O    1.21716853   1.02047740  -3.06056314
H    1.27660298   0.32650696  -2.40397772
H    0.44996029   1.53088426  -2.80151061
O    0.62678329  -3.00352509  -2.41293739
H    0.05675152  -2.48914377  -2.98452071
H    0.93260589  -2.37962076  -1.75456988
O   -3.45108679  -0.41406707   0.01359707
H   -3.33298659  -0.40720098   0.96345866
H   -2.56208259  -0.45834839  -0.33845768
O   -0.79359959  -0.90110182  -3.47991836
H   -0.93672705  -0.81083809  -2.53779372
H   -0.07666657  -0.29689383  -3.67271772
O    2.10258002   1.91513109  -0.54559997
H    2.05601988   1.79581698  -1.49419269
H    1.50910933   1.25308366  -0.19103322
O    2.06501346   0.59198484   2.59384101
H    2.87491524   0.65342391   2.08736672
H    1.37250447   0.54708380   1.93456335
O   -0.90485532   2.05988370  -1.74195168
H   -0.80936787   1.18663409  -1.36175553
H   -0.51322982   2.64721805  -1.09550007
O   -2.83580766  -0.17518316   2.67448288
H   -2.17480751  -0.85856196   2.56355918
H   -2.40666173   0.62516003   2.37196609
O    2.91117987  -1.86251465   0.58843486
H    2.22037768  -1.44375115   0.07495525
H    2.50633435  -2.03713859   1.43804561
O    4.10851772   0.57427363   0.76260088
H    3.80597150  -0.32811197   0.66063105
H    3.49020512   1.09416318   0.24914569
O   -1.38243754  -3.12335491  -0.48839609
H   -0.72853947  -3.44010628  -1.11154755
H   -1.29374390  -2.17054126  -0.51101125
O   -0.86219120  -1.96100601   2.05526954
H   -0.49051523  -1.25903415   1.52111195
H   -1.13121254  -2.62714263   1.42271806
O   -1.60361071   1.92458968   1.42841012
H   -2.23979511   2.02779002   0.72070189
H   -0.96024033   1.30499665   1.08430129
O   -3.37868919   2.18838185  -0.65468240
H   -3.55563799   1.26266953  -0.48741714
H   -2.58187292   2.18838608  -1.18507441
O    0.15060229   3.66055084   0.21111294
H   -0.40648918   3.14066599   0.79042346
H    0.92061481   3.11170563   0.06251446
O    1.69892191  -2.05281033   3.06302578
H    1.86148440  -1.11013964   3.02871449
H    0.79617422  -2.15182707   2.76057887
C    0.14464124  -0.60652040  -0.20762525
O    1.19810187  -0.66815346  -1.08134171
O   -1.01771227  -0.41410573  -0.90691754
O    0.33314267   0.43589763   0.66163424
