52
Energy:  -1526.65984570
O    1.18667450   0.89157671  -3.41943927
H    1.33710703   0.52367710  -2.54866274
H    0.45932502   1.50217988  -3.29961297
O    0.56114874  -3.41396187  -1.30254469
H    0.29266574  -2.73307418  -1.91942448
H    1.23560513  -2.99853952  -0.76517638
O   -3.01277233  -0.90050424  -0.12880828
H   -3.08766710  -0.63001192   0.78631823
H   -2.15507730  -0.57760146  -0.40507785
O   -0.32830199  -1.41905211  -2.99736566
H   -0.51306767  -0.95386029  -2.18146735
H    0.24755593  -0.82972775  -3.48451687
O    2.07286564   2.37719841   0.12722459
H    1.56743240   1.63294421  -0.19966188
H    2.11646328   2.24057324   1.07362020
O    2.29882048   0.72577267   2.39795294
H    3.00406073   0.53844929   1.77845476
H    1.49593422   0.60921860   1.88999560
O   -0.92705189   2.30661892  -2.26468919
H   -0.79446617   1.48068695  -1.79940514
H   -0.63296359   2.97847386  -1.64958361
O   -2.87753067   0.01587516   2.44459256
H   -2.13867164  -0.58975299   2.50403773
H   -2.51079876   0.80307133   2.04202362
O    2.48545597  -2.04369151   0.24041940
H    1.91819763  -1.34414012  -0.08373746
H    2.27527338  -2.11090368   1.17183642
O    4.04497631   0.25170949   0.37371746
H    3.62900349  -0.59865143   0.23199671
H    3.45459476   0.87996199  -0.04219152
O   -1.72288400  -3.32620052   0.27308237
H   -0.95186477  -3.35046182  -0.29363854
H   -2.19359834  -2.53728492   0.00424780
O   -0.75196211  -1.67718288   2.21628843
H   -0.41780473  -0.96765340   1.66752746
H   -1.06290302  -2.33529056   1.59464393
O   -1.80753980   2.05845018   0.97243907
H   -2.39576301   1.94750617   0.22550083
H   -1.09852243   1.43516322   0.81420007
O   -3.43329134   1.66341792  -1.20863727
H   -3.36108118   0.73820599  -0.97411556
H   -2.63034596   1.85116182  -1.69470597
O   -0.15740054   3.90226535  -0.16846833
H   -0.77265010   3.34280377   0.30555969
H    0.68111818   3.44509884  -0.10430456
O    1.86279880  -1.91773929   2.91883376
H    2.07820047  -0.98612215   2.87497639
H    0.92196239  -1.95489349   2.74655995
C    0.21044866  -0.24494835  -0.22760845
O    1.35971730   0.07255243  -0.90239228
O   -0.87550799   0.13273432  -0.97269419
O    0.19088121   0.41218356   0.97471221
