52
Energy:  -1522.11410708
O    1.36855607   0.99952059  -2.65622859
H    1.15255994   0.36355154  -1.97423087
H    0.66986610   1.65185802  -2.60602852
O   -0.22849991  -2.67210425  -2.06338098
H   -0.51740370  -2.11366725  -2.78512509
H    0.14599791  -2.06489798  -1.42519309
O   -3.11686133  -0.45917077   0.09081603
H   -2.92632364  -0.46674134   1.02882985
H   -2.27391991  -0.27544200  -0.32382278
O   -0.85265988  -0.49065651  -3.57019534
H   -1.04425434  -0.30424518  -2.65107934
H    0.01660023  -0.11685666  -3.71473733
O    2.03150109   1.91371626  -0.15860310
H    2.06338902   1.70636913  -1.09253146
H    1.34624864   1.34381149   0.19049498
O    1.87659662   0.01084274   2.72509165
H    2.68220893   0.24396687   2.26370918
H    1.17978607   0.17685259   2.09016831
O   -0.79232858   2.56312638  -1.90969618
H   -0.78063254   1.69390734  -1.50900512
H   -0.39745726   3.13581980  -1.25217756
O   -1.84286327  -0.57884881   2.51768975
H   -1.51897414  -1.47188251   2.40013765
H   -1.24705344  -0.03737653   1.99995404
O    3.15207500  -1.98667369   0.40315145
H    2.40421534  -1.55973648  -0.01477486
H    2.80105698  -2.33901728   1.22099751
O    4.01268563   0.50502725   1.08013348
H    3.82186731  -0.38943182   0.79770973
H    3.37122758   1.04462201   0.61796369
O   -2.41743529  -3.09421234  -0.46917874
H   -1.68546480  -2.98678481  -1.07655866
H   -2.72693581  -2.20318369  -0.30636218
O   -0.51673864  -2.77524174   1.48339860
H   -0.19082837  -1.97551185   1.07054699
H   -1.19275384  -3.09534132   0.88609503
O   -1.53669463   2.58020097   1.23843086
H   -2.25114336   2.47539065   0.61009206
H   -0.97083260   1.82318948   1.08688675
O   -3.34783065   2.18675813  -0.77808851
H   -3.34082247   1.26233586  -0.52984227
H   -2.55510010   2.30047071  -1.30237809
O    0.38299091   4.05370868   0.05592686
H   -0.31328970   3.66771291   0.58737058
H    1.06640659   3.38391026   0.03258286
O    1.93145332  -2.70046478   2.76167804
H    1.91590268  -1.75034156   2.87681233
H    1.08548363  -2.90799454   2.36481720
C   -0.14250273  -0.35992409  -0.07232924
O    1.06163910  -0.73227356  -0.60931778
O   -0.92878885   0.18846731  -1.05116518
O    0.06567573   0.56401177   0.91801639
