52
Energy:  -1524.96354172
O    2.23902622  -0.29503081  -2.07756534
H    1.76611143  -0.50422605  -1.27207120
H    1.65340751   0.29369769  -2.55367595
O   -0.10971105  -3.29204306  -0.35045731
H   -0.57707923  -3.10444818  -1.16446406
H    0.22746208  -2.44253244  -0.06606702
O   -2.94055642  -0.29009363  -0.37062219
H   -3.08641951   0.27118676   0.39090269
H   -1.98913727  -0.31304186  -0.47312499
O   -0.75836585  -2.25576404  -2.79302955
H   -0.72200822  -1.51174584  -2.19190820
H    0.15454296  -2.52318843  -2.89939468
O    2.57732039   1.62754252  -0.13175777
H    2.80851706   1.05184196  -0.86069454
H    1.74159337   1.28696109   0.18729784
O    0.68667136   0.21176030   3.10528276
H    0.47945354   0.41617907   2.19341348
H    1.26729830  -0.54756779   3.05503279
O    0.17825022   1.49736590  -2.62272783
H   -0.00140006   0.83913004  -1.95139843
H    0.44819724   2.27343694  -2.13173476
O   -3.19183059   1.33111352   1.80146257
H   -2.70111796   0.69225794   2.31846983
H   -2.51936762   1.85107060   1.36138298
O    2.81000233  -1.37782459   2.35038421
H    3.15404552  -0.48694375   2.41517207
H    2.25630488  -1.36507340   1.56968684
O    3.14018720   1.34866151   2.54403901
H    2.24560816   1.16310537   2.82957204
H    3.06615642   1.49159514   1.60047064
O   -2.38160967  -2.54753664   1.08692280
H   -1.55996384  -2.84176388   0.69378119
H   -2.65725553  -1.80972636   0.54296766
O   -1.91773696  -0.70818018   3.13755935
H   -1.00339415  -0.42683451   3.10509863
H   -1.98702710  -1.37797469   2.45726085
O   -1.44109028   2.66192014   0.13713031
H   -1.88444272   2.41218627  -0.67361222
H   -0.83317848   1.94292048   0.30950950
O   -2.54699657   1.75348118  -2.18933595
H   -2.75896018   0.96922881  -1.68312306
H   -1.64535628   1.61539358  -2.47952286
O    0.88013854   3.59319967  -1.02263790
H    1.52809454   2.98577527  -0.66567787
H    0.07444286   3.39155703  -0.54679489
O    1.84844950  -3.00564781  -2.37387205
H    2.08158087  -2.07900469  -2.31717866
H    1.39389718  -3.18948550  -1.55179071
C    0.06401041  -0.38177706   0.23913946
O    1.24588376  -1.07469156   0.24094451
O   -0.45445939  -0.36689069  -1.02895606
O    0.28826766   0.90402651   0.65650990
