8
Energy:   -104.61067250
O    0.90154855  -1.38165935   1.19374490
H    0.87741147  -0.49278974   1.54808945
H    0.40778817  -1.32732372   0.37552721
S   -0.60439992   0.89253810  -0.85034502
O    0.18683958   1.37154612  -2.01850227
O   -0.71009925  -0.59295764  -0.89756856
O    0.07457319   1.30229856   0.41107953
O   -1.96891323   1.48926537  -0.89638878
