8
Energy:   -103.20082519
O    1.87961737  -0.66888742   0.67069337
H    1.81506795  -0.62649888  -0.28338652
H    1.03603731  -0.34174337   0.98307342
S   -1.29881770   0.45174250  -0.39178566
O   -1.88955941   1.81678154  -0.48006163
O   -0.30234106   0.27018044  -1.48456630
O   -0.62536288   0.28634193   0.92700215
O   -2.37800744  -0.56633394  -0.52951686
