8
Energy:   -103.28130039
O    0.37012257  -0.16525957   2.02321041
H    0.08174358   0.59319684   1.51545724
H    0.68022729  -0.78944861   1.36711975
S   -0.30099944   0.10191661  -1.35600235
O   -0.60386321   1.15035051  -0.34152717
O   -1.56852763  -0.54998611  -1.79016260
O    0.36437653   0.72746048  -2.53331697
O    0.60401658  -0.92015844  -0.75900266
