8
Energy:   -104.26780431
O   -1.18843660   0.66788724  -1.51434164
H   -1.09087249  -0.27855020  -1.40960734
H   -0.72666574   1.04128104  -0.76362426
S    0.82456197  -0.40502976   1.01848135
O    0.86650538  -0.72785220   2.47248494
O    2.19894732  -0.49449460   0.45000889
O   -0.06587337  -1.37424239   0.32001745
O    0.29866853   0.97647013   0.83141413
