8
Energy:   -104.45563202
O    0.27647819   1.06627370  -1.76810091
H    0.32340333   1.42030948  -0.88001953
H    0.13061257   0.12828005  -1.64512533
S   -0.19886134  -0.72127665   1.18638384
O    0.27126643   0.68472735   1.03727777
O   -0.15499167  -1.40272609  -0.13792810
O    0.68543131  -1.44162034   2.14514945
O   -1.59715144  -0.72548755   1.70103624
