8
Energy:   -103.71490472
O    1.49289937  -0.89742107  -1.01483130
H    0.63039529  -0.86073052  -1.42831934
H    1.33310577  -0.65019294  -0.10402061
S   -0.96368667   0.65388412   0.69966785
O    0.38262515   0.27027703   1.20995217
O   -0.98304127   2.11272920   0.39718413
O   -1.26192873  -0.11469112  -0.54147832
O   -1.99240184   0.34722133   1.73301341
