8
Energy:   -102.58154790
O    1.52235314  -0.42880796  -1.33480589
H    1.25788442   0.16128487  -0.62905906
H    0.74327008  -0.95616668  -1.51131148
S   -0.98245471   0.32889340   0.94844661
O   -1.08144842   0.04938313   2.40864326
O    0.33760952   0.95239150   0.65048595
O   -1.11223151  -0.94629897   0.18874771
O   -2.07374844   1.26009795   0.54590952
