8
Energy:   -104.17694648
O    0.14842699   0.17465457  -2.01260010
H    0.13361669  -0.64256714  -1.51444230
H    0.17114819   0.86149850  -1.34629611
S   -0.12052631  -0.11031011   1.34737469
O   -1.32235122  -0.43543579   2.16591619
O   -0.33205217   1.18858166   0.64863514
O    1.07206411  -0.00846718   2.23476194
O    0.10023406  -1.18591915   0.34018550
