8
Energy:   -103.97526870
O   -0.61250461  -0.88161585  -1.78892057
H   -0.73228088  -1.34398780  -0.95940404
H   -0.17639518  -0.06447999  -1.54740577
S    0.41863816   0.62525709   1.18950921
O   -0.36436792   1.40745602   2.18708943
O    1.85286422   0.60076487   1.59261681
O   -0.10443915  -0.76864272   1.13006625
O    0.29049550   1.26145017  -0.15173568
