8
Energy:   -104.95601760
O   -0.54846865  -1.72995469   0.89762504
H    0.16938599  -1.12882296   1.09651501
H   -1.04966295  -1.28703199   0.21289472
S    0.38989583   1.14842255  -0.60849327
O    0.85579496   0.54587562   0.67212189
O    1.51608161   1.17464249  -1.58374612
O   -0.72817903   0.33424612  -1.16268220
O   -0.08411424   2.53892599  -0.35966668
