8
Energy:   -104.60141583
O   -1.10949933  -1.22792999  -1.11594575
H   -1.23681959  -1.23249847  -0.16726218
H   -0.48304979  -0.52091355  -1.27060855
S    0.77499470   0.82387004   0.71362360
O    0.76609917   2.24440716   1.16317355
O    2.09472137   0.21019647   1.03272586
O   -0.30423485   0.07395739   1.41575936
O    0.54339308   0.76691913  -0.75716439
