8
Energy:   -107.51523856
O   -0.67725902   1.64043339   0.91099218
H   -0.39372396   0.84460286   1.36098494
H   -0.42533562   1.50253559  -0.00210729
S    0.42100650  -1.10169534  -0.62431575
O    0.37601395  -0.99058143   0.86085406
O    0.25135177   0.24955497  -1.22883198
O    1.73379469  -1.67061987  -1.04026295
O   -0.67713442  -1.99513506  -1.08902215
