8
Energy:   -105.28368674
O    0.79764427  -1.00762270  -1.54408033
H    0.69243903  -1.20112284  -0.61256469
H    0.54801580  -0.08733825  -1.62771051
S   -0.55806408   0.64213387   1.04397926
O   -0.25591038   1.41158645  -0.19567629
O   -2.02501683   0.39583947   1.13051643
O    0.16309363  -0.66121485   1.00773432
O   -0.11442271   1.42232440   2.23334257
