8
Energy:   -105.07945272
O    0.31179911  -1.73446207  -1.09932432
H    0.33673926  -1.77342773  -0.14324299
H    0.13351932  -0.81512261  -1.29747353
S   -0.21484550   1.18895520   0.70846814
O    0.08319581  -0.14876005   1.29309562
O   -0.28857641   1.07718841  -0.77550354
O   -1.51878736   1.68168294   1.23482829
O    0.86478597   2.14570952   1.08145219
