8
Energy:   -106.06032008
O    0.80608984   1.24288712   1.43556237
H    0.36354392   0.39443379   1.41293695
H    0.89396987   1.49232785   0.51562309
S   -0.56485839  -0.85917101  -0.93580503
O   -0.03543733  -2.06752088  -1.62841165
O   -0.51410849  -1.06949471   0.53840269
O    0.26509451   0.32422828  -1.29752912
O   -1.97498226  -0.62389672  -1.35568203
