8
Energy:   -102.90697941
O    1.94140972  -0.32483840  -0.52464361
H    1.75429950   0.47622037  -0.03522921
H    1.09113606  -0.75510923  -0.61482981
S   -1.31909147   0.17622007   0.32964805
O   -1.48281609  -0.21246191   1.75871088
O   -0.44232955   1.37754012   0.23899116
O   -0.69826549  -0.94971675  -0.42330708
O   -2.65295475   0.48951879  -0.25580279
