8
Energy:   -105.71764659
O   -1.62029441  -0.88271645  -0.85120411
H   -1.16279013  -0.16697605  -1.29238136
H   -1.10343104  -1.04800849  -0.06268483
S    1.07641584   0.58199068   0.60260209
O    2.54953892   0.46487895   0.41209427
O    0.45344587   1.09939388  -0.64811865
O    0.50891388  -0.75802248   0.92261190
O    0.79376466   1.52171237   1.72382084
