8
Energy:   -104.54320789
O    1.60148797  -1.24704105  -0.40182006
H    1.47410551  -0.50052507  -0.98724251
H    0.87061716  -1.19637656   0.21420982
S   -1.08756637   0.81778700   0.31455094
O   -2.37536717   0.60674901  -0.40456800
O   -0.02389043   1.17465246  -0.66592881
O   -1.24492919   1.92334909   1.30099375
O   -0.70607866  -0.43360256   1.02770683
