8
Energy:   -104.75371616
O   -1.12292691   1.53879461  -0.84303972
H   -1.24994598   0.63661106  -0.54950463
H   -0.17977763   1.68461941  -0.76930772
S    0.71422059  -1.06039933   0.59157543
O    1.42807813  -2.16464267  -0.10924841
O    1.33595671   0.24350055   0.22635043
O   -0.71910865  -1.05850805   0.18455733
O    0.81195615  -1.26194715   2.06464239
