8
Energy:   -102.72013113
O   -1.03295132  -1.10193111  -1.39848698
H   -0.17398002  -0.74193025  -1.61939315
H   -1.19413007  -0.80574218  -0.50264917
S    0.66893737   0.73350688   0.96652338
O   -0.53515111  -0.08527677   1.28253643
O    1.22958618   0.30620441  -0.34617823
O    0.28746099   2.17226251   0.89901010
O    1.69385344   0.54083740   2.03072521
