8
Energy:   -103.71017810
O    1.14648951   0.42428576  -1.62149534
H    1.36316847   0.13721310  -0.73443764
H    0.20974564   0.61838775  -1.58882744
S   -0.75474323  -0.31845420   1.08970395
O   -1.43014065   0.34471104  -0.06101329
O    0.71614746  -0.34625816   0.85346777
O   -1.04283702   0.44037112   2.33921831
O   -1.26214270  -1.71264081   1.22714305
