8
Energy:   -103.02975473
O    1.23530462  -1.55766704  -0.59047831
H    1.04952023  -1.32439584   0.31908233
H    0.67884567  -0.97416991  -1.10634300
S   -0.82079181   1.06186873   0.38356390
O   -0.46658588   2.42455763   0.87112632
O   -2.30089821   0.89299445   0.41300058
O   -0.32901247   0.89045940  -1.01245614
O   -0.18667067   0.03946342   1.26258482
