8
Energy:   -104.31144067
O    0.28360374   0.89311799   1.82138365
H   -0.20557266   1.13405423   1.03468928
H    0.79094651   0.12388260   1.56232366
S   -0.23098137  -0.59530883  -1.22118221
O    0.93801247  -0.93950998  -0.36381473
O   -1.13720260  -1.77375439  -1.32182588
O   -0.96974939   0.54922366  -0.61755386
O    0.24501406  -0.21719462  -2.58153438
