8
Energy:   -109.25325453
O   -0.32331473   0.10235583   1.97388565
H   -0.91757555   0.35906191   1.26877011
H    0.46010446  -0.21423603   1.52415704
S    0.21597720  -0.06837429  -1.31857289
O    0.81939019   1.01191945  -2.14860796
O   -1.03000697   0.43629362  -0.67597368
O   -0.10969188  -1.23659264  -2.18419727
O    1.18421746  -0.48511759  -0.26551267
