8
Energy:   -104.35464933
O    0.73341664   1.49580405   1.16992724
H   -0.04021867   0.98201210   1.40174202
H    1.07552658   1.07250872   0.38251775
S   -0.48938015  -0.98523409  -0.81059829
O    0.89659997  -0.43841973  -0.79822161
O   -1.12998567  -0.68519874  -2.12197289
O   -0.44312510  -2.46045003  -0.60639640
O   -1.28100980  -0.35686786   0.28419776
