8
Energy:   -103.62902931
O    2.05431087   0.33140778   0.14087149
H    1.72211256  -0.46055553  -0.28182255
H    1.27300171   0.85625605   0.31500398
S   -1.39223873  -0.20486443  -0.05662111
O   -1.94668857  -1.01024978   1.06767414
O   -2.50378239   0.24358917  -0.94175390
O   -0.68053129   0.98520341   0.48864131
O   -0.43795264  -1.03800049  -0.84104598
