8
Energy:   -103.85944589
O   -0.39561790  -1.70116888  -1.12877085
H    0.09590788  -0.89310221  -1.27595280
H   -0.82483061  -1.57036511  -0.28325404
S    0.30243634   1.14912367   0.74547065
O   -0.56387691   2.35790832   0.65359562
O   -0.51358790  -0.01376714   1.19479169
O    0.89002137   0.85635751  -0.59211367
O    1.39718881   1.39599598   1.72560896
