8
Energy:   -104.82513367
O   -1.90375586  -0.65024328  -0.41225435
H   -1.42178105  -1.04797593   0.31282555
H   -1.36496152   0.09474900  -0.67856058
S    1.29271670   0.44185201   0.22630304
O    1.96834491   1.48289037   1.05084270
O    0.58519085  -0.51770034   1.12004039
O    0.30802615   1.09114950  -0.68413494
O    2.30930490  -0.28893149  -0.58153602
