8
Energy:   -103.61353299
O   -1.14778395  -1.45568076   0.84772496
H   -1.31663618  -0.79835787   0.17270837
H   -0.20418002  -1.40581674   1.00055511
S    0.74344131   1.00500153  -0.56037345
O    1.30496805   0.77925444  -1.92192623
O    1.36042229   0.04423747   0.39689709
O    1.04010936   2.39894421  -0.12561845
O   -0.73173448   0.79757003  -0.59084620
