8
Energy:   -102.92765394
O   -0.68889787  -0.26885599  -1.88516200
H   -0.64887326  -0.67821919  -1.02084051
H   -0.14884737   0.51722990  -1.80363728
S    0.42025195   0.13009524   1.29474441
O    1.06321957   0.99899062   0.26921359
O   -0.23082943  -1.03062000   0.62471967
O    1.45454815  -0.36247539   2.24748024
O   -0.60593049   0.91448574   2.03756415
