8
Energy:   -102.85334079
O   -0.60190225  -0.30452302   1.97634344
H   -1.05159303   0.45809156   1.61243541
H   -0.04021532  -0.61369012   1.26560063
S    0.45625520   0.14131957  -1.33863093
O    1.59388259   1.02690603  -1.71498256
O   -0.68309824   0.97313244  -0.85898409
O    0.02827705  -0.64945705  -2.52674164
O    0.88595940  -0.78530315  -0.25381544
