8
Energy:   -103.37596478
O   -1.16804162  -1.67375303  -0.12003371
H   -0.61311018  -1.64564250   0.65938450
H   -0.97480152  -0.85785522  -0.58177052
S    0.76564399   1.14859211   0.02435728
O   -0.13544505   0.57536984  -1.01465898
O    0.33964648   2.54163186   0.33751275
O    0.69226169   0.31741181   1.25880224
O    2.16611286   1.15995491  -0.48422690
