8
Energy:   -102.72364426
O   -0.66904765  -1.11097458  -1.62756811
H   -0.27565181  -0.25399597  -1.46307123
H   -0.63399768  -1.55749618  -0.78162378
S    0.43857971   0.79617957   1.07409651
O    0.51634341   1.22717998  -0.35008447
O   -0.64554982   1.55125273   1.76302879
O    0.14415269  -0.66312832   1.13600951
O    1.73937256   1.06941390   1.74743222
