8
Energy:   -102.72043820
O   -1.72196395   1.11249375  -0.27307859
H   -0.82772442   1.25021999   0.03932979
H   -1.74642623   0.19138398  -0.53228939
S    1.18134732  -0.71326179   0.20646137
O    1.61701281  -1.09550142   1.57911881
O    2.19984820  -1.16650522  -0.78213680
O   -0.12697805  -1.35843620  -0.09707565
O    1.03550630   0.76739570   0.12593912
