17
Energy:   -399.99791334
O    1.32934849  -1.90099360   0.36782119
H    0.55872892  -2.11931596   0.89195159
H    1.08272047  -1.10372586  -0.10097580
O   -0.96707089  -0.32049379  -3.21084645
H   -1.70617168  -0.18023868  -2.61899311
H   -0.19296928  -0.18290253  -2.66489114
O    1.13742268   2.92557680  -0.29255105
H    0.27954634   2.92313457   0.13203588
H    1.23605131   2.03889990  -0.63940595
O    0.43319673  -1.45001727   3.00751744
H   -0.29237326  -1.07278274   2.51004970
H    1.19645267  -1.33829075   2.44078170
S   -1.16193429   0.49372463   0.05582171
O    0.13557727   0.30058140  -0.65076123
O   -1.25104176   1.89417387   0.55672268
O   -2.28504708   0.23122925  -0.88747774
O   -1.24722559  -0.45108600   1.20480312
