17
Energy:   -401.61401352
O    1.43258097   1.77161680   0.59262791
H    0.92056942   1.00035332   0.83599727
H    1.01078104   2.09876279  -0.20191106
O    1.92931597  -1.16505836  -1.33879620
H    1.00844277  -1.31968078  -1.54931056
H    1.91819659  -0.83771421  -0.43937749
O    0.17308366   2.13176421  -1.87018109
H    0.62166117   1.34566617  -2.18172554
H   -0.58851091   1.80072672  -1.39413514
O   -1.38520356  -1.71489412   3.02057633
H   -2.03773959  -1.80431432   2.32600265
H   -0.64847971  -1.26975521   2.60186264
S   -1.24726731  -0.58573782  -0.14040647
O   -0.77208198  -1.28414368  -1.36781355
O   -2.35294317  -1.36855949   0.47989274
O   -0.12175851  -0.46259277   0.82818285
O   -1.74228557   0.77234470  -0.50188790
