17
Energy:   -400.87934706
O   -1.57574735   2.10384744  -1.92510056
H   -0.75423666   2.24800033  -1.45544965
H   -1.75467761   1.17003328  -1.81461558
O    2.92201959  -2.35988094  -1.05645465
H    2.44840080  -2.19175466  -0.24180710
H    2.51783978  -1.77210229  -1.69472324
O   -0.24825210  -0.70814961   2.81685376
H   -0.84920788  -0.04034559   2.48651788
H    0.28349401  -0.94888444   2.05822034
O   -1.71450689   1.13828810   1.35934478
H   -0.89156356   1.53347893   1.07155956
H   -1.89200680   0.45551377   0.71239436
S    0.41625546  -0.16313678  -0.66983352
O    0.57883538   1.27009638  -0.29632253
O   -1.02908684  -0.46242361  -0.87358093
O    1.16239123  -0.43558809  -1.93044913
O    0.95288210  -1.02463183   0.42101852
