17
Energy:   -403.26158665
O    2.66823152  -0.23771871  -0.75778370
H    2.45163963  -0.31544659   0.17134395
H    1.94772732  -0.67687665  -1.20971937
O   -0.89577646   0.88261069  -1.63528464
H   -1.49850711   0.92935614  -0.89315092
H   -0.49050557   0.01860456  -1.56125245
O   -2.21726609   1.00539606   0.80149136
H   -2.13452184   0.05196390   0.78272062
H   -1.33430999   1.31911156   0.99694714
O    0.50058226   1.51585038   0.95183635
H    0.60951097   1.50676073   0.00089799
H    0.63644498   0.60639393   1.21765984
S   -0.06174831  -1.88037623   0.33471084
O   -1.48728526  -1.55122232   0.61684931
O    0.26267868  -1.51668225  -1.07332816
O    0.81782286  -1.11335988   1.26106956
O    0.15979047  -3.34024049   0.53425265
