17
Energy:   -411.97597506
O   -2.30288293  -1.41420230   2.10851886
H   -2.38397071  -0.48857911   1.87856598
H   -1.52436222  -1.71120817   1.63742983
O    1.11165823   2.89345127  -1.70729511
H    0.42987705   2.28258488  -1.98702447
H    1.29071349   2.65334696  -0.79816312
O   -0.44435607  -1.82060378  -2.25762469
H   -0.26280804  -1.95927239  -1.32808546
H   -0.59533594  -0.87853582  -2.33472784
O    2.36628719  -0.61006147   1.62401778
H    1.63891003  -1.14020446   1.29828364
H    2.11941629   0.29070646   1.41448556
S   -0.41559504   0.54643377   0.13051427
O   -0.64127798   0.77050684  -1.32515000
O   -1.63470279   0.94435185   0.88915615
O   -0.12866886  -0.89552363   0.37244860
O    0.74226947   1.36640003   0.58560232
