17
Energy:   -406.46501037
O   -2.84591705   1.60843073   2.16549257
H   -2.76284911   0.88392180   1.54547775
H   -1.96754805   1.98589791   2.21259100
O   -0.34298893  -2.43127930  -0.29461684
H    0.43315999  -2.08645630   0.14688265
H   -1.01718974  -1.76784516  -0.14785083
O    0.18163507  -0.84353948  -2.55672227
H   -0.00010707  -1.49764340  -1.88192623
H    0.25443063  -0.01816091  -2.07746987
O    3.12851482   0.58736900  -0.40590238
H    2.66441585   0.11900681   0.28798583
H    2.43993974   1.04371112  -0.88948078
S   -0.05227270   0.67811524   0.56213383
O    0.37273089   1.20797510  -0.76403376
O    0.96136022  -0.29602561   1.05579152
O   -0.17275204   1.80351059   1.53119009
O   -1.37042987  -0.00299912   0.42558747
