17
Energy:   -402.92417309
O    0.24448146   1.42770259   1.50355040
H    0.06593510   1.85313852   0.66488639
H   -0.32334723   0.65712668   1.50744805
O   -0.14775460   2.20242112  -1.13732684
H    0.54099149   1.54078291  -1.20132331
H   -0.95973422   1.69881147  -1.07989619
O    1.64706032   0.10958742  -0.93998563
H    1.67128351   0.11829520   0.01686820
H    0.90717276  -0.45792023  -1.15616451
O    1.07588335  -2.14448178   1.15629283
H    0.95027112  -2.21407048   0.20992565
H    0.28372545  -1.70983988   1.47221071
S   -1.69104387  -0.89172662  -0.30108521
O   -2.12099384   0.44300869  -0.80479610
O   -1.28525275  -0.77616359   1.12792800
O   -2.82140002  -1.85517972  -0.42005212
O   -0.53652885  -1.37857189  -1.10742062
