17
Energy:   -401.55094857
O   -1.76952027  -2.01420420  -1.52972859
H   -2.29764504  -1.91771060  -0.73726089
H   -1.02627693  -1.42606291  -1.39589653
O    3.31561331   1.47538998   0.97103665
H    2.40127066   1.41271018   1.24722611
H    3.32062594   1.13134239   0.07781888
O    2.04852493   1.47162240  -1.53917453
H    1.41040493   0.76373818  -1.45009793
H    1.91914196   2.01093478  -0.75902451
O   -3.04133961  -1.47050524   0.91159487
H   -2.19829117  -1.67447893   1.31643546
H   -2.97373037  -0.54713107   0.66861137
S   -0.31830296   0.24319278   0.64662992
O   -0.41218374  -0.92241890   1.57001273
O   -1.65310289   0.89547234   0.53287351
O    0.66904344   1.22244419   1.18171288
O    0.12303136  -0.22272651  -0.69807943
