17
Energy:   -403.19427250
O    0.01846421   1.44462089  -2.65654151
H   -0.92586980   1.29548565  -2.60938421
H    0.31292334   1.40816832  -1.74648828
O    0.50931897  -1.29190876  -2.65085895
H    0.15548573  -1.40911088  -1.76921415
H    0.47940846  -0.34651835  -2.79774047
O    1.44709024   1.88093399   2.41856016
H    1.30318803   1.86151714   1.47243808
H    0.81907877   1.24971075   2.76983022
O   -0.51902355  -2.59843907   2.20112357
H   -0.49403560  -2.47304300   1.25250180
H   -0.60974233  -1.71477904   2.55770023
S   -0.74251842   0.22600263   0.43622687
O   -2.04882431   0.76200860  -0.03954884
O    0.35532913   1.13441534   0.00077642
O   -0.75383486   0.13800327   1.92358293
O   -0.52274364  -1.13041670  -0.13990304
