17
Energy:   -401.36332262
O   -1.91766608  -0.66597534   1.73069543
H   -1.15507317  -0.20991896   2.08663992
H   -1.61749853  -1.01736115   0.89244768
O   -1.21369749   2.57770582  -0.46719227
H   -1.63568739   2.00934994   0.17711198
H   -0.28350278   2.36032226  -0.40624934
O    2.41963207  -2.68647860  -0.44120674
H    2.85061793  -1.98390347   0.04548744
H    1.52676418  -2.37022706  -0.57906082
O   -1.24993790   0.24215451  -2.05261143
H   -1.24721128   1.14921509  -1.74689011
H   -0.64277713  -0.21028575  -1.46704720
S    1.18153160   0.24731247   0.65417998
O    0.39047357  -0.73313598  -0.14146318
O    1.23536577   1.54754955  -0.07148207
O    0.53532509   0.44596057   1.98198121
O    2.56496196  -0.27112426   0.84768398
