17
Energy:   -402.87118239
O   -1.86744444   0.38915329  -0.86359044
H   -1.19503543   0.16435560  -1.50667984
H   -1.41682857   0.94823263  -0.23065483
O    0.25661488  -0.46609607  -2.39887455
H    0.30458902  -1.09516777  -1.67901406
H    0.68348807   0.32040440  -2.05912738
O    0.21270321  -1.90865361  -0.04798497
H   -0.62992669  -1.51429964   0.17716308
H    0.86320769  -1.28126988   0.26739642
O   -0.70946023  -0.44106022   2.49596643
H    0.17095258  -0.72116118   2.24566943
H   -0.81939643   0.41087946   2.07365772
S    1.19510801   1.47087955   0.44462422
O    1.29661132   1.56892137  -1.03867780
O    2.06518525   2.50536264   1.07144981
O   -0.21826289   1.69171921   0.86141260
O    1.63689836   0.11751495   0.88431227
