17
Energy:   -419.85507760
O   -2.54018556   0.08291672   0.23066059
H   -1.88125934   0.58573139   0.70943559
H   -2.08513554  -0.22331719  -0.55380235
O   -1.16360605  -2.21119788   1.00569137
H   -0.30955388  -1.82640172   1.20256356
H   -1.75780866  -1.46258667   0.95338106
O   -0.85874356  -1.20764417  -1.57188370
H   -0.20811774  -0.52514883  -1.40720831
H   -0.84777365  -1.74568376  -0.78028726
O    3.09410213   2.28933508  -1.09678058
H    3.03165558   2.23001088  -0.14346378
H    2.36796649   1.75508861  -1.41855626
S    0.89345647   0.63854508   0.82398585
O    0.87248393   0.63313144  -0.66585670
O    1.05287904  -0.75613819   1.32352868
O    2.03350680   1.47055364   1.30163323
O   -0.38504390   1.20663344   1.33663822
