17
Energy:   -403.63343265
O   -0.51528100  -0.64870208  -2.73475862
H   -1.17398435  -0.21377465  -2.19329776
H    0.31427658  -0.25257943  -2.46801358
O   -1.43223020  -1.07669301   1.12068846
H   -0.76149901  -0.72733513   1.70745980
H   -1.55478382  -0.39290735   0.46216767
O    0.76809497  -0.03580503   2.43484765
H    1.19068657  -0.53610472   1.73674421
H    0.55887946   0.80738247   2.03298256
O    1.34124568  -1.31337095   0.02179544
H    1.34602916  -0.45644649  -0.40468953
H    0.42156106  -1.57868080   0.01702612
S   -0.13341313   1.82826428  -0.49475713
O    0.12231434   2.08537495   0.95044098
O   -0.30430439   3.12559143  -1.20738497
O    1.02039918   1.08866993  -1.07940863
O   -1.37206165   1.01342080  -0.64267591
