17
Energy:   -402.99477678
O   -0.09248899   2.19967532   1.37723597
H    0.29595904   1.88155076   0.56229012
H   -0.75642367   1.54635489   1.59767873
O   -0.52078295   1.73187229  -3.13954005
H    0.13878479   1.55434918  -2.46895241
H   -1.28146695   1.21704174  -2.87020531
O    0.21332386  -1.47447236   2.54670818
H    0.87463350  -1.65604585   1.87892643
H   -0.49654603  -1.04364591   2.07057251
O    1.90936775  -1.73948499   0.31552795
H    1.87486188  -0.79787865   0.14694951
H    1.10821827  -2.08352403  -0.07947648
S   -0.92309204  -0.38975990  -0.57265688
O    0.28573368   0.46287282  -0.75114447
O   -1.95947959   0.00319135  -1.56844308
O   -0.55659316  -1.81970751  -0.77521166
O   -1.46202909  -0.20539630   0.80417170
