17
Energy:   -402.76697628
O    0.04890826  -1.26301934   2.12584062
H    0.87821119  -0.87716534   1.84369671
H   -0.61847933  -0.65137755   1.81484227
O   -0.25228968  -2.03602619  -0.52454989
H   -0.11057267  -1.92406624   0.41545708
H    0.33042961  -1.39585640  -0.93302598
O   -1.65062027   0.47755416   0.83522024
H   -0.89253610   1.05534182   0.74746108
H   -1.68640209   0.00095630   0.00587954
O   -1.01710283   1.18807328  -2.12845487
H   -0.25368844   0.61176296  -2.16446508
H   -0.85362672   1.75618039  -1.37561909
S    1.72485866   0.89103673  -0.18736284
O    0.59537474   1.78852050   0.18531528
O    2.08755139   0.03838832   0.97948962
O    1.31488516   0.02403579  -1.32768345
O    2.90162335   1.71320233  -0.58657281
