17
Energy:   -407.17099936
O   -0.78940559  -2.05604322  -2.11497964
H   -1.22203535  -1.34010181  -1.64969345
H    0.09955111  -1.73769823  -2.27196473
O    0.17420794   1.26379926   2.62604432
H   -0.21748226   1.89514419   2.02254270
H    0.59013683   0.61515277   2.05815987
O    0.23875822  -2.88718461   0.36165984
H   -0.14554292  -2.73082653  -0.50095052
H    0.63156410  -2.04887605   0.60491720
O   -0.86603494   2.87145637   0.57299984
H    0.02816770   2.85249205   0.23201033
H   -1.27526123   2.08258631   0.21740215
S    0.77423220   0.37479372  -0.66498615
O   -0.70932832   0.42256683  -0.79485493
O    1.31666823   1.76249433  -0.65273198
O    1.13970640  -0.31256502   0.60547305
O    1.34988252  -0.37332128  -1.81783076
