17
Energy:   -403.37466850
O    2.04316176   1.20022066  -1.29700344
H    1.33767266   1.68258855  -0.86591389
H    1.60018446   0.48714539  -1.75692366
O    0.92428487  -1.62343206  -0.27906212
H    1.24487143  -0.93979294   0.30923514
H    0.36623456  -1.16019741  -0.90374232
O    0.54859593   0.41584384   1.93400756
H    0.29725381   1.05846418   1.27060867
H   -0.13246767  -0.25519585   1.88829142
O   -1.24850443  -1.63852986   1.39083984
H   -1.77720630  -0.96703622   0.95979174
H   -0.54173549  -1.82153218   0.77179246
S   -1.33118069   1.00623524  -0.98743099
O   -0.60268132  -0.03211702  -1.76923227
O   -0.35287937   1.82843892  -0.22126675
O   -2.09579979   1.88326302  -1.91817258
O   -2.27336229   0.34535604  -0.04105234
