17
Energy:   -401.26308984
O    1.28581126  -0.63504692   2.66190505
H    0.75270707   0.11119302   2.93605415
H    1.16803732  -0.67839929   1.71296790
O   -1.23347719  -0.69295675  -3.35852189
H   -1.39445444  -1.42818468  -2.76711842
H   -1.07328638   0.05121506  -2.77819521
O    1.09866681  -1.72499230  -2.25139515
H    1.04811746  -1.31631524  -1.38730044
H    0.49663082  -1.21523595  -2.79355101
O   -0.37253901   1.58640649   3.09523757
H    0.14454918   2.01865444   2.41552192
H   -1.03925596   1.09614932   2.61423002
S   -0.29477096   0.81856692  -0.04066003
O    0.62726776  -0.35039881   0.01819344
O    0.40291208   2.02811791   0.47926762
O   -0.71000100   1.05304406  -1.45229189
O   -1.49926269   0.54350451   0.79219071
