17
Energy:   -401.25466365
O    2.14795149   0.41381520  -2.01098019
H    2.16644421   0.52421259  -1.06034762
H    1.63652615  -0.38325327  -2.15011263
O   -0.39834050   1.49766451  -1.81335836
H   -0.60095649   1.10427249  -0.96458199
H    0.53633311   1.33262661  -1.93737280
O   -1.84722479   1.09217965   2.92535937
H   -1.01814317   0.68729046   3.18015392
H   -1.86951614   1.01371902   1.97164093
O   -1.12374981  -2.30472250  -0.98575387
H   -0.37492328  -2.42562575  -0.40191051
H   -1.42003391  -1.41086460  -0.81409830
S    0.63903522  -0.34358725   1.14843855
O    0.55589886  -0.16939103   2.62588364
O    0.82078356  -1.78732793   0.82800074
O   -0.61760815   0.15059641   0.51857350
O    1.79706660   0.43177355   0.62129629
