24
Energy:   -294.66725946
O    1.84460904   1.77031413  -0.04236341
H    1.44839977   1.55777423   0.80266727
H    2.63810393   2.25716417   0.18029045
O    0.50487322   0.88457783   2.20507103
H    0.58206426  -0.06723422   2.13928940
H   -0.43664003   1.05236097   2.16465482
O    0.82860462  -1.81576678   1.47492763
H    1.25400658  -1.55574347   0.65782733
H    1.34698988  -2.55603928   1.79037207
O   -2.31936022   0.92955733   0.80733543
H   -2.11340521   0.01052666   0.63646410
H   -3.25315356   1.00664401   0.61158177
O    1.83595269  -0.89950593  -0.83331217
H    1.17316782  -0.96119069  -1.52116612
H    1.93608324   0.04003020  -0.68008824
O   -0.65462760   1.55292453  -1.29701688
H    0.12565415   1.86057771  -0.83577749
H   -1.33962112   1.54134433  -0.62852483
O   -0.46970138  -0.85843223  -2.36191150
H   -0.54483284   0.04147345  -2.04448924
H   -0.74424353  -0.81356116  -3.27779634
O   -1.57707071  -1.59970658   0.13309390
H   -1.26539911  -1.53840726  -0.76986516
H   -0.79678415  -1.82000317   0.64187100
