24
Energy:   -293.94191670
O    1.71793311   1.62298620   0.51102452
H    1.11293597   1.31285755   1.18484240
H    2.36485153   2.14138865   0.98955070
O   -0.06070238   0.56809895   2.21888262
H   -0.90329768   0.65090383   1.77233099
H    0.16394176  -0.35880524   2.13754705
O    0.91994144  -1.91207153   1.59066725
H    1.29480594  -1.59387767   0.76941143
H    1.67856685  -2.12122791   2.13561950
O   -2.25074067   0.78871425   0.55035335
H   -2.19630785  -0.08913220   0.17265702
H   -3.18400605   0.92078072   0.71710477
O    1.97091204  -0.85716347  -0.65009572
H    1.35662996  -0.80916596  -1.38261576
H    2.03330599   0.04271809  -0.32985827
O   -0.43434518   1.88332755  -1.24630903
H    0.37097433   1.98132637  -0.73828485
H   -1.10462762   1.67448129  -0.59566586
O   -0.11703931  -0.51117535  -2.44932298
H   -0.25832069   0.37412785  -2.11389837
H   -0.22561805  -0.42900325  -3.39678815
O   -1.77743028  -1.64655312  -0.52697773
H   -1.19817030  -2.23200787  -0.03919452
H   -1.25700764  -1.36666904  -1.28000961
