24
Energy:   -281.98030562
O   -0.12320952  -1.28325591   0.28305379
H    0.69421554  -0.80450998   0.14575685
H   -0.31019462  -1.17634993   1.21570568
O    1.97157556   0.29686676  -0.64854828
H    2.91173408   0.27067924  -0.82644719
H    1.56179282   0.17756152  -1.50533076
O   -1.56124697   0.59126250  -1.10574307
H   -2.50300734   0.42026606  -1.09682843
H   -1.18536060  -0.10762658  -0.57049047
O   -0.64644990  -0.71934396   2.89007093
H   -0.54082834  -1.01190189   3.79532548
H   -0.56505526   0.23334419   2.93470334
O   -0.01257081  -2.75198560  -2.04049479
H    0.05227771  -3.69852343  -1.91363796
H   -0.09326665  -2.39621988  -1.15553672
O    0.50031340  -0.16125721  -2.85814781
H   -0.30139575   0.22386894  -2.50435106
H    0.35817544  -1.10611797  -2.80099204
O    0.21272391   2.26487582   0.22970777
H    0.96841241   1.73649734  -0.02716363
H   -0.51777212   1.89640766  -0.26712080
O   -0.32693334   1.98614690   2.86505320
H   -0.43582873   2.86483741   3.22875174
H   -0.11585625   2.13253745   1.94296420
