24
Energy:   -281.99932750
O   -2.19362245   1.18072572   2.35346794
H   -2.45332374   0.54253354   1.68901491
H   -2.60200248   0.86684932   3.16027598
O   -1.15876305   0.99923697  -1.47066529
H   -1.41650517   1.60118506  -2.16884818
H   -0.64852855   0.32162676  -1.91421574
O    2.77707529   0.92383248   0.35284262
H    1.89887600   1.18825636   0.62684602
H    3.33643386   1.66186993   0.59502141
O    0.04592529  -1.38206468   1.00864199
H    0.79023820  -1.61060084   0.45186433
H    0.12883164  -0.43820886   1.14463674
O    0.14044663   1.38531811   0.93574213
H   -0.28124423   1.37632402   0.07648211
H   -0.58108215   1.48920118   1.55609395
O    0.28082960  -0.99256771  -2.59800724
H    1.02179315  -1.17972998  -2.02166086
H   -0.12600298  -1.84547963  -2.75052069
O    2.23049210  -1.51489073  -0.71830988
H    2.99620037  -2.07888725  -0.60954126
H    2.51013966  -0.66319959  -0.38267423
O   -2.51541783  -0.62854733   0.35032895
H   -2.23689399  -0.06771092  -0.37363157
H   -1.72927426  -1.11925955   0.58993623
