24
Energy:   -295.04690609
O    1.78862728   1.67993971   0.13795672
H    1.19920091   1.52476441   0.87601433
H    2.30552892   2.44186360   0.39971335
O   -0.00490019   0.99184048   2.03959315
H   -0.77129470   1.12007326   1.48064086
H    0.08811202   0.04141783   2.10499474
O    0.37528830  -1.72357980   1.92876799
H    0.97620268  -1.58781402   1.19616890
H    0.93764531  -1.99988544   2.65239886
O   -2.09008227   1.12332161   0.27253479
H   -2.09394541   0.18535921   0.08163309
H   -2.95646775   1.29688437   0.64061632
O    1.97432765  -1.08358040  -0.19098586
H    1.48815166  -1.17998967  -1.00986924
H    2.09707003  -0.13919671  -0.09452033
O   -0.23902268   1.62447130  -1.76722859
H    0.53038477   1.74133985  -1.20992637
H   -0.97370122   1.57809799  -1.15540443
O    0.05274266  -1.06656585  -2.24218135
H   -0.05922563  -0.11597466  -2.23373525
H    0.02255090  -1.30354206  -3.16909158
O   -1.88246235  -1.52471459  -0.24173146
H   -1.21293003  -1.56277750  -0.92474650
H   -1.53788635  -2.07329256   0.46293969
