24
Energy:   -288.93543277
O    2.00529947   0.10379290   1.21951084
H    2.64117310   0.37941774   1.87975891
H    1.15965063   0.15371760   1.66517598
O   -0.57020911   0.25619966   2.17703485
H   -1.11123699   0.32235337   2.96389212
H   -0.94623760   0.89624217   1.57273359
O    0.40671617  -0.22330881  -2.44062817
H   -0.53151274  -0.25114469  -2.25305545
H    0.77681613  -0.93609141  -1.91986064
O   -1.43673736   1.96911201   0.22508748
H   -1.84265589   2.80859758   0.00892557
H   -0.56600837   2.01480548  -0.16984920
O    1.40713862  -1.96519335  -0.50779447
H    2.12080155  -2.59586110  -0.60358202
H    1.75407085  -1.29837504   0.08484643
O    1.04689531   1.81487505  -0.76958276
H    0.89616548   1.20180101  -1.48906354
H    1.54603872   1.31177117  -0.12617450
O   -1.16157845  -1.92651273   0.55635018
H   -0.98489286  -1.25380780   1.21398391
H   -0.30677409  -2.11285523   0.16799746
O   -2.10925415  -0.21942753  -1.36714394
H   -1.94006299  -0.92693945  -0.74502410
H   -2.02877584   0.58083577  -0.84817021
