24
Energy:   -305.57472299
O    1.95736939   1.40432716   0.46920338
H    1.31073455   1.22518004   1.15184644
H    2.60164502   1.97212132   0.89199241
O   -0.01046554   0.73688472   2.17439224
H   -0.79120877   1.01274511   1.69421218
H   -0.01813611  -0.21852506   2.11638231
O    0.07420537  -1.95216876   1.48563407
H    0.77941344  -1.78881623   0.85935188
H    0.32853850  -2.76228779   1.92750923
O   -2.06112387   1.27428266   0.38930361
H   -2.09868741   0.35918721   0.11105704
H   -2.97753671   1.53489790   0.48149393
O    1.89486788  -1.24503909  -0.36116811
H    1.35751409  -1.16545710  -1.14929847
H    2.09682392  -0.34202095  -0.11621131
O   -0.02589223   1.79926560  -1.42585154
H    0.72932445   1.81328864  -0.83790344
H   -0.78438595   1.78964851  -0.84204794
O    0.02954946  -0.72644102  -2.34414072
H    0.00854038   0.20444931  -2.12225413
H    0.04734836  -0.74473264  -3.30100040
O   -1.85850970  -1.29111106  -0.38737204
H   -1.29429995  -1.22910216  -1.15812110
H   -1.29562900  -1.66057643   0.29298999
