24
Energy:   -294.17963029
O    2.01856958   1.63977025  -0.21705945
H    1.49351769   1.53449590   0.57633180
H    2.79208459   2.12522453   0.06971666
O    0.21191251   1.27672740   1.83046854
H   -0.56314837   1.44411188   1.29428302
H    0.22323319   0.32658255   1.94591747
O    0.21771926  -1.45960391   1.94348318
H    0.83861861  -1.66765517   1.24532093
H    0.42524697  -2.08025083   2.64202560
O   -2.06565569   1.39541620   0.25190507
H   -2.10379654   0.43927413   0.22804164
H   -2.93102979   1.66245403   0.56182492
O    1.88262356  -1.62710728  -0.21820784
H    2.27114035  -0.75579313  -0.29629885
H    1.18702779  -1.63950822  -0.87564572
O   -0.22623416   1.37488057  -1.83552095
H    0.58425576   1.58195779  -1.37027158
H   -0.92110476   1.57922661  -1.20971795
O   -0.20326485  -1.24922499  -1.97784764
H   -0.17719252  -0.29423805  -2.03744654
H   -0.36684538  -1.54126766  -2.87461090
O   -1.89772021  -1.27965966   0.14430233
H   -1.35610634  -1.34339765  -0.64235117
H   -1.29996814  -1.48129408   0.86421057
