24
Energy:   -282.95240333
O    1.55666789  -0.35156217   2.94080323
H    1.17444810  -1.00010862   2.34959482
H    1.63860226  -0.80865731   3.77781137
O   -1.69962023  -0.06540395   0.91803846
H   -1.80808814   0.28802645   0.03511519
H   -1.22695989   0.61772415   1.39360133
O    0.84146222   1.76152262  -0.70466041
H    1.17809666   2.53010798  -1.16529654
H   -0.03762922   1.63396031  -1.06125255
O    0.06237639   1.72697068   1.95435044
H    0.45338741   1.84302411   1.08839788
H    0.64789330   1.11635230   2.40217517
O    0.20649102  -1.94851304   1.13880646
H   -0.52427629  -1.33405945   1.07055870
H   -0.20564853  -2.81244146   1.13953831
O   -0.56868599  -1.03310012  -3.01568715
H    0.16593391  -1.08638965  -2.40435608
H   -0.29481987  -1.55993202  -3.76647164
O    1.37915184  -0.93670215  -1.15482299
H    1.38627598  -0.00165900  -0.95018819
H    1.08059735  -1.35664549  -0.34813552
O   -1.65010415   1.03495015  -1.64036854
H   -2.46228715   1.33563281  -2.04802104
H   -1.36301818   0.30415486  -2.18786441
