24
Energy:   -285.06189638
O   -0.51465783  -2.04949982  -1.65638012
H   -0.83814637  -2.72548737  -2.25188650
H   -0.01433116  -2.53008704  -0.99687956
O    0.68028274   2.32487443   1.32522507
H    1.09423195   1.46299279   1.37036852
H   -0.13970777   2.22288002   1.80838607
O   -1.79905873   1.54224057   2.26513354
H   -1.88179525   0.92301869   1.53990890
H   -2.37208878   1.19135418   2.94685720
O    0.99133448  -3.05598834   0.37168193
H    1.74303753  -3.56424905   0.67638743
H    1.15035515  -2.17140423   0.70100734
O    1.16213710  -0.38498307   0.86766608
H    1.50090074  -0.25595849  -0.01823669
H    0.21272827  -0.30518477   0.77554142
O   -1.45788588  -0.03784768   0.01763288
H   -1.18532874   0.71784618  -0.50282004
H   -1.35204814  -0.78530689  -0.57086942
O    1.47005057  -0.06298724  -1.81212214
H    0.82019785  -0.74598788  -1.97775248
H    0.96610374   0.75076750  -1.80359730
O   -0.19299950   2.09188493  -1.21159097
H    0.16561876   2.30525805  -0.35014063
H   -0.39415638   2.94107117  -1.60484724
