24
Energy:   -294.14795596
O    1.80067373   1.88095390   0.19623445
H    1.24244753   1.50069653   0.87448196
H    2.45303458   2.38848288   0.67900924
O    0.00061042   0.91303960   2.02035279
H   -0.82241304   1.11870071   1.57699319
H    0.01154175  -0.04254122   2.07492068
O    0.21320655  -1.84063689   1.78404140
H    0.96070919  -1.74029251   1.19463266
H    0.18740811  -2.77685655   1.98167500
O   -2.17463647   1.21897461   0.26351262
H   -2.12017422   0.27464720   0.11684481
H   -3.11320660   1.40668276   0.27265686
O    2.05646425  -1.17309037  -0.16621494
H    2.32097969  -0.25824082  -0.06970728
H    1.56897635  -1.19637276  -0.98965002
O   -0.23363471   1.58751800  -1.70475340
H    0.48275928   1.81466196  -1.11194895
H   -1.02156967   1.65326502  -1.16524652
O    0.10747628  -1.05066603  -2.21251570
H    0.02231848  -0.10129210  -2.12494212
H   -0.10012472  -1.22660090  -3.13021968
O   -1.68188345  -1.40860516  -0.11685908
H   -1.11748750  -1.41130436  -0.88995789
H   -1.09168028  -1.60073959   0.61182222
