24
Energy:   -285.99737075
O    0.55106960   0.18773697   2.14087268
H    0.31103610  -0.69922735   1.87271216
H    0.69418712   0.12253462   3.08506433
O   -1.79601691   1.19380995   1.05128752
H   -1.01084002   0.95178487   1.54236080
H   -1.99987332   0.41896099   0.52756671
O    2.07628965  -2.27237835  -0.54779136
H    2.09235935  -2.40590675  -1.49549584
H    2.24204312  -1.33647644  -0.43445448
O   -1.13029789   2.83569178  -0.99481076
H   -1.39408924   2.35122125  -0.21254848
H   -1.75981523   3.55417832  -1.05577680
O    2.10690513   0.45680669  -0.10877160
H    1.62071363   0.45150263   0.71574131
H    2.67248844   1.22671900  -0.04891845
O   -1.82475746  -0.98688889  -0.67606416
H   -2.45715813  -1.30852116  -1.31860126
H   -1.18033765  -0.50469091  -1.19417619
O   -0.10248647  -2.19831689   1.11768004
H    0.65366587  -2.40667963   0.56899939
H   -0.78216251  -1.93199403   0.49853186
O    0.02281030   0.52948985  -1.92186864
H    0.80395499   0.51350171  -1.36888655
H   -0.35700225   1.39586803  -1.77570734
