24
Energy:   -295.59322675
O    0.32656402   1.08252866   2.05782865
H   -0.28747415   0.35179782   2.13008800
H   -0.02625637   1.62351105   1.35136728
O    2.25868904  -0.01994226   0.55313116
H    1.62111522   0.41797994   1.11700670
H    3.07825098   0.01340234   1.04652574
O    0.55797417  -2.22002021   0.26562161
H    0.23590717  -2.09517537  -0.62708128
H    1.26851975  -1.58496541   0.35541160
O   -0.46998811  -1.48946669  -2.18229239
H   -1.00437275  -2.04815497  -2.74667905
H   -1.10289906  -0.94021909  -1.71970979
O   -1.34347589  -1.09854369   1.82187389
H   -1.70024365  -1.69415278   2.48081124
H   -0.69991391  -1.62410894   1.34664657
O    1.32742000   1.29894477  -1.75159986
H    0.92949946   0.59218914  -2.25991823
H    1.81704519   0.85179676  -1.06126829
O   -2.02586584   0.07500480  -0.60616635
H   -1.61102632   0.93128206  -0.50162317
H   -1.95616361  -0.33244217   0.25717623
O   -0.57221511   2.39471541  -0.17570117
H   -0.78442314   3.31164469  -0.35017265
H    0.13105943   2.18971414  -0.79182717
