24
Energy:   -295.58343078
O    1.94458870   1.59656668   0.29892522
H    2.80652051   2.01259692   0.31390034
H    2.12468080   0.67858934   0.09615369
O   -0.09884341   0.88455643   2.02394694
H    0.04125283  -0.06228701   2.03355886
H    0.66497694   1.23553666   1.56610066
O    0.14857475  -1.83959800   1.50593689
H   -0.55317222  -1.84888369   0.85501692
H    0.05647946  -2.67169946   1.97000313
O   -2.06461708   1.15779625   0.22287069
H   -2.69180888   1.82437238   0.50311802
H   -1.42000104   1.12257757   0.92959669
O    2.15580182  -1.02383306  -0.23773035
H    1.59683177  -1.42290711   0.42899616
H    1.63680586  -1.06335379  -1.04104421
O   -0.06224845   1.76230698  -1.61268493
H    0.67430667   1.85412966  -1.00829515
H   -0.82807960   1.67155541  -1.04567641
O    0.27242320  -0.88749174  -2.20243120
H   -0.47400085  -1.20566472  -1.69464291
H    0.17915349   0.06512450  -2.19502214
O   -1.79164929  -1.49521442  -0.42692781
H   -1.99991837  -0.58027623  -0.23786709
H   -2.59328907  -1.84918771  -0.81203613
