24
Energy:   -283.02353655
O    3.31183147  -0.16198657   0.65942352
H    2.43685315  -0.48484060   0.87485346
H    3.88666827  -0.91425368   0.80045083
O   -1.85027160   0.95966424  -1.15494049
H   -2.39129453   0.27042604  -0.76961369
H   -2.46977847   1.51389263  -1.62957085
O   -1.59831263  -1.97352738   1.84874134
H   -0.75359755  -1.64235164   1.54376444
H   -1.55056026  -1.91049988   2.80266958
O    0.01735334   1.80849048   0.72214994
H   -0.71276148   1.63580298   0.12772313
H    0.76573762   1.96081458   0.14513159
O    0.47694623  -0.42991669  -1.78217042
H   -0.37326694   0.00623562  -1.72612953
H    1.11533937   0.28169801  -1.73431059
O    0.67818455  -0.81395492   0.90989627
H    0.61195366  -0.92392831  -0.03865588
H    0.42959743   0.09750748   1.06375527
O   -3.29136986  -1.05440311  -0.06705813
H   -2.75213513  -1.38218092   0.65267757
H   -3.69866904  -1.83735265  -0.43763774
O    2.19751131   1.65160590  -1.02852186
H    2.71111270   1.07824038  -0.45957771
H    2.83466939   2.27247819  -1.38176262
