90
Energy:   -535.09741125
O   -3.30442657   2.36865112  -1.33095245
H   -2.49689006   2.82569026  -1.05270204
C   -3.78083937   1.62301567  -0.22208258
H   -4.69056330   1.11462255  -0.55287560
H   -4.03917532   2.25931553   0.63882529
H   -3.06481886   0.85697104   0.11446993
O    1.54128504   3.35621394   0.76541920
H    1.69631221   2.62048655   1.37623428
C    2.57941365   3.33911286  -0.20129188
H    2.38938969   4.17408316  -0.88114531
H    2.59241419   2.41166086  -0.79495940
H    3.57688035   3.48109818   0.24331770
O    1.59747518   1.00646675   2.37301226
H    0.96848066   0.50277186   1.83535007
C    2.12376815   0.12856102   3.35527039
H    2.83024378   0.71199301   3.95191475
H    2.66831011  -0.72245178   2.91705972
H    1.34950465  -0.26564996   4.03194687
O   -2.14608747  -1.29235699  -2.68322935
H   -1.53358493  -0.68369363  -3.12231114
C   -3.45964387  -0.95706351  -3.10117869
H   -4.13668956  -1.65220241  -2.59731735
H   -3.60183660  -1.06899921  -4.18747007
H   -3.74802914   0.06698386  -2.81668222
O   -0.93913231   3.70376214  -0.52442162
H   -0.07521724   3.60841686  -0.09665614
C   -1.16964708   5.08912573  -0.72483230
H   -2.14668457   5.17844036  -1.20743549
H   -0.41965947   5.55405506  -1.38372276
H   -1.20199058   5.65572566   0.21893449
O   -1.71327264  -0.58396524   4.00334940
H   -1.46643225   0.35277773   4.00573651
C   -2.96648400  -0.69718179   3.34823331
H   -3.22948037  -1.75844496   3.35444435
H   -2.93046807  -0.36052859   2.30030926
H   -3.76723148  -0.14401744   3.86358756
O   -0.30683985   0.54031656  -3.81093352
H    0.63207291   0.65478540  -3.60173746
C   -0.89977680   1.82857155  -3.84779282
H   -1.95697038   1.68115857  -4.08463949
H   -0.46294608   2.47568535  -4.62445232
H   -0.83633140   2.35368804  -2.88187114
O   -0.71029792   2.04775883   3.74082214
H    0.17067656   1.84656286   3.39178431
C   -1.40321462   2.79640366   2.75495645
H   -2.39331170   3.01448269   3.16438838
H   -1.53779995   2.23929805   1.81458553
H   -0.91076795   3.75399449   2.52410277
O   -2.55588418  -1.88436442   0.05026035
H   -2.47954223  -1.72811365  -0.90272489
C   -1.97645527  -3.14940381   0.32679472
H   -2.07095980  -3.30945847   1.40426240
H   -0.90700016  -3.19307070   0.06768799
H   -2.49260194  -3.97512334  -0.18755653
O   -0.40537357  -0.16592547   0.83547067
H   -1.13891843  -0.79382016   0.75747408
C   -0.08627528   0.28755109  -0.47031226
H    0.74164145   0.99377028  -0.36404114
H   -0.92391195   0.81382128  -0.95423562
H    0.24277775  -0.52676090  -1.13468974
O   -0.04021293  -2.68131843   3.18366871
H   -0.64155850  -1.96202371   3.42743474
C    0.05052705  -3.56104999   4.29289025
H    0.73156293  -4.36516587   4.00121753
H   -0.91816596  -4.01322224   4.55737359
H    0.46274931  -3.07314021   5.18999347
O    3.04895790  -0.93460476  -0.72303731
H    2.60001837  -1.46518247  -0.04823078
C    4.14111268  -0.27886182  -0.09875140
H    4.63559833   0.31419017  -0.87286927
H    4.87947824  -0.98309335   0.31555716
H    3.82400862   0.40457974   0.70444845
O    1.85342260  -2.65538062   1.11168273
H    1.17497005  -2.65326061   1.80314562
C    2.09879196  -4.00596467   0.75356213
H    2.86520617  -3.98998182  -0.02607818
H    1.20682871  -4.50640695   0.34522842
H    2.47972363  -4.60640307   1.59447956
O    2.37939354   0.67555440  -2.94491019
H    2.64504639   0.14641154  -2.17819011
C    3.13663993   0.22988150  -4.05868187
H    2.82492712   0.83630127  -4.91341889
H    2.95013262  -0.82736831  -4.30406971
H    4.22020537   0.36825297  -3.91898000
O    2.43420495  -3.02582404  -2.62448752
H    2.70135583  -2.31400896  -2.02417680
C    1.04428998  -2.88293531  -2.86995235
H    0.76011107  -3.69248793  -3.54770755
H    0.79442607  -1.92699605  -3.35629121
H    0.43906623  -2.97574445  -1.95460105
