90
Energy:   -536.15535507
O   -3.03341901   2.07996696  -0.97021793
H   -2.18892667   2.54096681  -1.08306779
C   -3.59097705   2.49925207   0.26504027
H   -4.54152533   1.97050487   0.37625882
H   -3.79657338   3.58077747   0.29350576
H   -2.95521971   2.24359632   1.12714819
O    2.02858665   3.30953495  -0.26565633
H    2.37691485   2.57660106   0.26339815
C    2.72056244   4.48616077   0.12067898
H    2.31593695   5.30170909  -0.48483265
H    3.80350037   4.42447412  -0.06963007
H    2.56806730   4.74029907   1.18130912
O    1.96777889  -0.54785622   3.27246547
H    1.30982552  -1.23843562   3.10328883
C    1.67800220   0.02174160   4.53900468
H    2.42844456   0.79750027   4.71370428
H    1.74553043  -0.70954138   5.35964009
H    0.68385209   0.49409354   4.57542635
O   -3.85018837  -0.64761378  -0.77303133
H   -3.56034594   0.27206585  -0.86578923
C   -4.34338100  -1.07268124  -2.03343304
H   -4.66551401  -2.11033894  -1.91103197
H   -3.57530551  -1.04444574  -2.82212824
H   -5.21034190  -0.48369971  -2.37145208
O   -0.57198072   3.44029635  -1.33035213
H    0.33021878   3.42033481  -0.97812938
C   -0.58022962   4.32013823  -2.44316119
H   -1.60372980   4.33080707  -2.82763325
H    0.08565533   3.98618796  -3.25424181
H   -0.30678661   5.35177652  -2.17163092
O   -1.98306261  -0.76597108   3.75076709
H   -1.70526524   0.14129473   3.55552200
C   -3.17523538  -1.01693238   3.02394091
H   -3.47418577  -2.04287613   3.25535671
H   -3.03325279  -0.94020819   1.93456876
H   -3.99963347  -0.34725389   3.31493201
O   -1.12113914  -0.44657052  -3.91031045
H   -0.15578449  -0.37665292  -3.86999660
C   -1.64243538   0.86578824  -4.04631952
H   -2.73060465   0.76859380  -4.09020681
H   -1.30660542   1.36316911  -4.96968718
H   -1.39174839   1.51360729  -3.19176475
O   -0.90722696   1.62929681   2.67375039
H   -0.66886521   0.99391396   1.98245046
C   -0.14401278   2.80566980   2.45884463
H   -0.42484306   3.51054265   3.24610178
H   -0.35516248   3.27786431   1.48661756
H    0.94045127   2.62801452   2.53063355
O   -2.01353459  -2.64198151  -0.02149368
H   -2.72937959  -2.05365275  -0.30408612
C   -1.38721310  -3.14936804  -1.18888996
H   -0.58356103  -3.80996276  -0.85237373
H   -0.94051353  -2.35740278  -1.81020134
H   -2.07300809  -3.73881273  -1.81739416
O   -0.45472353  -0.40208121   0.81499941
H   -0.88598803  -1.25049902   0.63438535
C   -0.04226066   0.14423501  -0.42755712
H    0.44142534   1.09939007  -0.20571967
H   -0.88627332   0.33881499  -1.10767372
H    0.68640241  -0.49380417  -0.95170737
O   -0.00757940  -2.62752708   2.95597457
H   -0.72492590  -2.02116872   3.19296993
C   -0.54342991  -3.94090335   2.93497993
H    0.27774867  -4.61098047   2.66637690
H   -1.34199223  -4.06244994   2.18644670
H   -0.93475377  -4.25623056   3.91488386
O    2.97087598   1.17225769   1.27376285
H    2.60177047   0.62118013   1.97980669
C    3.68946420   0.32154397   0.39487098
H    4.09845833   0.95836492  -0.39422222
H    3.04937033  -0.43959078  -0.07813119
H    4.52942078  -0.19002217   0.89040136
O    1.74940982  -3.03566341   0.65822083
H    1.08105643  -2.83747732   1.33086435
C    2.96346459  -3.32882261   1.33102278
H    3.70523193  -3.54968813   0.55869848
H    2.88339211  -4.20832690   1.98892699
H    3.33427971  -2.48093709   1.92798478
O    1.66951004  -0.14886842  -3.58323346
H    2.04424136  -0.86162519  -3.04473789
C    2.30654645   1.05973302  -3.20113276
H    1.87271264   1.85195356  -3.81729835
H    3.39283732   1.04328138  -3.38135159
H    2.13351293   1.31591090  -2.14415138
O    2.47571278  -2.28925160  -1.94468005
H    2.21947151  -2.55957558  -1.05042693
C    2.27961729  -3.40137353  -2.80332150
H    2.57301192  -3.07952936  -3.80622784
H    1.22854540  -3.72760242  -2.84332058
H    2.90182615  -4.26694934  -2.52689430
