90
Energy:   -535.49561870
O   -3.37340336   2.57149031  -1.08055752
H   -2.56070158   3.01388071  -0.79380007
C   -3.83491230   1.77643093  -0.00008361
H   -4.75069952   1.28533081  -0.34014190
H   -4.07879941   2.37288215   0.89296866
H   -3.11575133   0.99450645   0.29005246
O    1.45411930   3.66975299   1.04831878
H    1.65987811   2.85424305   1.52897472
C    2.44898623   3.84500595   0.05229670
H    2.20199247   4.76787660  -0.47948242
H    2.46658886   3.02305751  -0.68041623
H    3.45971466   3.95493326   0.47552402
O    1.73757323   1.06237909   2.16872426
H    0.98052006   0.61577138   1.76149542
C    1.84665250   0.59410510   3.50339837
H    2.70410055   1.10719032   3.94725825
H    2.03089537  -0.49016326   3.55991394
H    0.95763943   0.82758353   4.10996321
O   -2.22505058  -0.98408542  -2.80704886
H   -1.58267585  -0.37863055  -3.20605059
C   -3.52214968  -0.51717548  -3.14180670
H   -4.23331166  -1.21046605  -2.68455183
H   -3.70388136  -0.50872219  -4.22793720
H   -3.72622972   0.49061755  -2.74749478
O   -1.00644751   3.92827632  -0.30611737
H   -0.15465400   3.89178076   0.15381650
C   -1.23589574   5.27718851  -0.68071472
H   -2.19919495   5.30023004  -1.19744379
H   -0.46915844   5.66326879  -1.37052140
H   -1.29682875   5.95457649   0.18543194
O   -1.35786121  -1.19936926   3.79921672
H   -1.51307896  -0.25234104   3.66704911
C   -2.57143696  -1.87788123   3.51745588
H   -2.37880807  -2.94311731   3.67124603
H   -2.90525504  -1.73800567   2.47737047
H   -3.39158427  -1.57886492   4.18881642
O   -0.25817618   0.83357194  -3.74867012
H    0.66309453   0.92436209  -3.46329194
C   -0.83198439   2.13080754  -3.77006395
H   -1.86942220   2.01013754  -4.09355546
H   -0.32945759   2.80642166  -4.47984540
H   -0.83711130   2.60992873  -2.77850259
O   -1.70933273   1.46090964   2.90821705
H   -1.32743791   1.16102665   2.06997495
C   -1.51507437   2.86366652   2.99230391
H   -1.95100728   3.18480761   3.94220712
H   -2.02031769   3.41225992   2.18202507
H   -0.45070556   3.14632598   2.99226332
O   -2.30279523  -1.93505793  -0.15313444
H   -2.38561974  -1.65620410  -1.07714954
C   -1.85887843  -3.28244364  -0.14829581
H   -1.77095177  -3.58047945   0.90000222
H   -0.87276440  -3.40698364  -0.62247536
H   -2.56927026  -3.96598313  -0.63910591
O   -0.49382570   0.01519815   0.80344968
H   -1.04754667  -0.76118838   0.63303749
C   -0.17968233   0.60307630  -0.44884702
H    0.44427827   1.47594065  -0.23845173
H   -1.07319246   0.94555905  -0.99393651
H    0.38976425  -0.07338600  -1.10528184
O    0.66633998  -2.87840475   2.76182585
H   -0.03714907  -2.27894557   3.05195535
C    1.13354349  -3.57841407   3.90385982
H    1.92534321  -4.24901453   3.55913756
H    0.35002773  -4.19041094   4.37750548
H    1.56095927  -2.90955171   4.66721834
O    3.36989127   0.47156780  -0.09373034
H    2.97913537   0.73383357   0.75299852
C    3.36143357  -0.94588733  -0.15102940
H    3.80489037  -1.22414875  -1.11092620
H    2.34473834  -1.36708345  -0.10977433
H    3.96146604  -1.40739525   0.64881358
O    1.55350027  -3.86822296   0.27363962
H    1.25188673  -3.53624566   1.13226854
C    2.47680308  -4.91720645   0.51793317
H    2.80643535  -5.27957752  -0.45957129
H    2.02608045  -5.76251059   1.06115261
H    3.36536471  -4.58055228   1.07461937
O    2.37861791   1.03875369  -2.71024316
H    2.77634071   0.84855743  -1.84765099
C    3.11878695   0.32993530  -3.69119170
H    2.65746347   0.55537765  -4.65651113
H    3.08530449  -0.76083188  -3.54326189
H    4.17387075   0.64232379  -3.73578933
O    2.05592777  -3.11562506  -2.42263189
H    1.85624695  -3.40066346  -1.51858324
C    0.83847625  -2.70286778  -3.02261274
H    1.08160457  -2.38509018  -4.04015449
H    0.37446743  -1.85133596  -2.50072511
H    0.09872922  -3.51617301  -3.08653665
