90
Energy:   -537.24878926
O   -3.27885041   2.85933968   0.21063591
H   -2.35487042   3.03192216  -0.02367061
C   -3.47102725   1.45384374   0.19710791
H   -4.51673483   1.27717186   0.46313029
H   -2.83884840   0.93111602   0.93187520
H   -3.29126374   1.00959145  -0.79440725
O    2.17166955   3.29297727  -0.08249711
H    2.82006289   2.61159632  -0.31429305
C    2.30883104   3.56402904   1.30323426
H    1.57131309   4.33341607   1.54735732
H    3.30596384   3.95198529   1.56398983
H    2.10364521   2.68294683   1.93122330
O    2.44239421  -0.55573775   1.44399610
H    1.48567618  -0.42958952   1.35914024
C    2.76389855  -0.49423413   2.82435331
H    3.84498908  -0.63819606   2.90183508
H    2.27125003  -1.28511132   3.41136953
H    2.51590452   0.47915847   3.27577676
O   -3.01550788  -1.40271557  -2.27115968
H   -2.65559191  -0.67636066  -2.80152966
C   -4.38945620  -1.53510899  -2.59868337
H   -4.77910140  -2.35741016  -1.99247994
H   -4.55168700  -1.78576362  -3.65869788
H   -4.97199673  -0.63091707  -2.36233439
O   -0.60861343   3.61778865  -0.48018240
H    0.34470095   3.49944038  -0.35524780
C   -0.82177158   4.94487201  -0.93399639
H   -1.90047555   5.06107874  -1.06956533
H   -0.33253548   5.14785968  -1.89951251
H   -0.48544137   5.70169117  -0.20812858
O   -0.52069795  -0.99267107   4.11187850
H   -0.36849936  -0.06018839   3.89802124
C   -1.90917111  -1.24602549   3.96874357
H   -2.06294772  -2.30054707   4.21332932
H   -2.26840575  -1.07796749   2.94137590
H   -2.52438791  -0.64319246   4.65494905
O   -1.91037792   0.75495533  -3.64473856
H   -0.96656660   0.80659156  -3.85681674
C   -2.38052563   2.07897253  -3.44859226
H   -3.44494877   2.00236094  -3.21064430
H   -2.27610295   2.70500835  -4.34856581
H   -1.87924602   2.58848855  -2.61080379
O   -0.16770475   1.60189552   2.99366204
H   -0.21939031   1.17770331   2.12428706
C   -1.09394543   2.67637382   3.00407155
H   -1.02269358   3.14302246   3.99030044
H   -2.13342434   2.34316162   2.85836443
H   -0.86518192   3.44236065   2.24663590
O   -2.37762586  -1.97195978   0.38385469
H   -2.67084052  -1.84934607  -0.53124876
C   -1.67897253  -3.20483558   0.45044710
H   -1.35581082  -3.32716439   1.48779342
H   -0.78345003  -3.22127698  -0.19029189
H   -2.31133361  -4.06678318   0.18597947
O   -0.27629096  -0.14563678   0.79315880
H   -0.98287216  -0.80616186   0.73955934
C   -0.00987133   0.30754750  -0.52448241
H    0.78817034   1.05079227  -0.44573019
H   -0.88173081   0.79105443  -0.99230655
H    0.33865331  -0.49845685  -1.18906114
O    0.62028465  -3.44258729   3.25969817
H    0.22114452  -2.60387435   3.53478186
C    0.99580628  -4.14588198   4.43310938
H    1.44354776  -5.08788889   4.10503050
H    0.13667601  -4.38325335   5.07989168
H    1.74310108  -3.60344196   5.03318158
O    3.77791552   1.00494357  -0.48221004
H    3.42667074   0.42739748   0.21168541
C    4.42735374   0.18278505  -1.43867182
H    4.81702500   0.84924773  -2.21292566
H    3.74252513  -0.53400771  -1.91825002
H    5.27429521  -0.37755579  -1.01266052
O    2.36985948  -2.65387215  -0.46896732
H    2.47284023  -2.01155472   0.24883945
C    2.27263064  -3.94220205   0.11693916
H    2.15711508  -4.65341842  -0.70544314
H    1.39947769  -4.04280072   0.78046094
H    3.17435871  -4.22031286   0.68466991
O    0.86535109   0.71795134  -3.98276178
H    1.23816962  -0.14205115  -3.73816959
C    1.77249104   1.71912399  -3.54999833
H    1.33714999   2.68122989  -3.83339843
H    2.75929405   1.63578462  -4.03171578
H    1.91754949   1.71836501  -2.45833226
O    1.60091774  -1.86231533  -3.06030244
H    1.91315342  -2.21560049  -2.21406267
C    0.40922583  -2.55229435  -3.40137887
H    0.07119607  -2.14207200  -4.35685713
H   -0.39416495  -2.40410404  -2.66288026
H    0.56670659  -3.63449453  -3.53107047
