90
Energy:   -539.57173535
O   -4.33789709   0.56120983   1.95467783
H   -4.39387904  -0.21270760   1.37472860
C   -4.18910359   1.70653463   1.13089062
H   -4.12761371   2.56900799   1.80010202
H   -5.04558434   1.85880170   0.45558863
H   -3.26979801   1.67817760   0.52520879
O   -4.17085302  -1.63827185   0.19372461
H   -3.25600483  -1.68059462  -0.12200447
C   -4.99367900  -1.30893667  -0.91398904
H   -6.02043960  -1.26540223  -0.54068942
H   -4.95293809  -2.06502343  -1.71364541
H   -4.74714267  -0.32824245  -1.35014960
O    4.49424209   0.55573668  -2.62957760
H    4.85108753  -0.20124255  -2.14165644
C    5.52905750   1.51908833  -2.74638706
H    5.11010080   2.36482159  -3.29837956
H    6.39904103   1.14279962  -3.30702313
H    5.87846598   1.88842032  -1.76951198
O    1.64169745  -1.68010383   2.44387807
H    0.74052595  -1.68648439   2.79922647
C    2.52574415  -1.99842539   3.50673581
H    3.53615402  -1.98685223   3.08909583
H    2.34175147  -2.99932661   3.92759299
H    2.48680393  -1.26420743   4.32660470
O    2.94285622  -2.67002682   0.12571510
H    2.46805427  -2.40487388   0.92738853
C    2.02476145  -2.62019995  -0.95463348
H    2.57595943  -2.92171409  -1.84948275
H    1.62351347  -1.60895562  -1.12540319
H    1.17825855  -3.31270272  -0.82559826
O   -2.81986387   0.37153492   4.28337077
H   -3.39289474   0.51248299   3.51513088
C   -3.65275167   0.25320466   5.42566217
H   -2.99126576   0.09489965   6.28173525
H   -4.34114387  -0.60410014   5.36303634
H   -4.24552156   1.16166306   5.61567405
O    5.27103492  -1.63695801  -1.05970387
H    4.50999525  -2.04901582  -0.62444504
C    6.19166441  -2.66677561  -1.38289238
H    7.04258621  -2.18524442  -1.87232572
H    5.77205157  -3.40893042  -2.07996386
H    6.56516891  -3.19782767  -0.49336698
O   -1.52276079   3.25307092  -0.81230507
H   -0.92914615   3.08054641  -0.06646311
C   -1.80428909   4.64342946  -0.82567462
H   -2.47395607   4.82024167  -1.67170580
H   -0.90230228   5.25857178  -0.96988646
H   -2.31374032   4.98296428   0.08972304
O    2.36493839   0.90747265   1.55984202
H    2.17730625   0.01295215   1.88085684
C    3.42023660   0.81367420   0.61640082
H    3.61875138   1.82985135   0.26503054
H    3.15667187   0.19604078  -0.25643360
H    4.34897227   0.41668375   1.05529257
O   -0.92609278  -1.57656377   3.53143373
H   -1.54308339  -0.91785730   3.88335937
C   -1.69406529  -2.62573312   2.96398711
H   -0.98358760  -3.35880022   2.57242705
H   -2.32808058  -2.28568851   2.13021759
H   -2.33428895  -3.13196443   3.70332523
O    0.15677065   2.61641819   1.32549889
H    0.98703371   2.12568981   1.41645034
C   -0.60321599   2.39859288   2.50342343
H   -1.53486403   2.95832645   2.38419484
H   -0.09751552   2.76653897   3.40987809
H   -0.85901226   1.33814759   2.65442465
O   -3.54437595   1.97124039  -2.31781639
H   -2.84943039   2.42543527  -1.81863609
C   -2.91188855   1.08526206  -3.22750636
H   -3.70896730   0.58200673  -3.78147816
H   -2.30906472   0.31504944  -2.72139048
H   -2.26938713   1.60812081  -3.95317018
O    1.70767885   0.60524565  -3.00634003
H    2.67170103   0.65855084  -2.92732696
C    1.16020715   1.75362162  -2.37861305
H    0.07390605   1.67750781  -2.47680574
H    1.48114311   2.69279473  -2.85582506
H    1.40301181   1.80829361  -1.30584364
O   -1.49816085  -1.52972558  -0.67667461
H   -1.06871785  -1.56056384  -1.54445972
C   -1.00556546  -0.38848499   0.00703107
H   -1.49950718  -0.36903465   0.98228922
H   -1.24034030   0.55322892  -0.51338513
H    0.08186482  -0.43041626   0.17589341
O   -0.24267363  -1.36990038  -3.19227307
H    0.43546487  -0.67822796  -3.20413502
C   -0.23659379  -2.00048592  -4.46304397
H   -1.00607517  -2.77665436  -4.43228420
H    0.72605133  -2.48307909  -4.69368556
H   -0.48316285  -1.30762791  -5.28275661
