90
Energy:   -536.46164291
O   -2.80208893   2.17897368  -0.47243581
H   -2.01452885   2.71230920  -0.28879042
C   -3.73373031   2.41347245   0.57139772
H   -4.61459156   1.80517092   0.34882660
H   -4.05160979   3.46627849   0.62909872
H   -3.35092672   2.11146256   1.55883318
O    2.08064239   3.18504476   1.00149375
H    2.27726783   2.36777445   1.48298201
C    2.96106800   3.25292584  -0.10881102
H    2.72599482   4.17925564  -0.63997852
H    2.82708364   2.41410246  -0.80966825
H    4.02033482   3.29018501   0.19009178
O    2.37955085   0.61515179   2.11738700
H    1.69908959   0.08341094   1.67847082
C    3.11512049  -0.24665345   2.97106305
H    3.87713968   0.36837958   3.45742335
H    3.62634988  -1.05339492   2.42280213
H    2.49112939  -0.70139512   3.75631617
O   -3.21143327  -0.50144940  -1.27317676
H   -3.10818835   0.42266067  -1.00154404
C   -3.17865304  -0.53958326  -2.69092323
H   -3.29623839  -1.58753572  -2.97980819
H   -2.22458989  -0.17654622  -3.10413619
H   -3.99767780   0.03527470  -3.15082985
O   -0.50379831   3.74487283   0.03170691
H    0.39157225   3.59204094   0.36842231
C   -0.66271852   5.14288930  -0.14947831
H   -1.67641936   5.29725450  -0.52904015
H    0.04401743   5.55952828  -0.88413033
H   -0.56034986   5.70783228   0.79027561
O   -3.04825868  -1.28246528   2.98232916
H   -2.54806674  -0.45322192   2.95810632
C   -4.26339860  -1.07281568   2.28089078
H   -4.81435949  -2.01650836   2.31792346
H   -4.10411400  -0.81179875   1.22293241
H   -4.89064976  -0.29303710   2.74054138
O   -0.08326506   1.22180259  -3.89377588
H    0.85132657   1.20426681  -3.63950386
C   -0.63095149   2.44777731  -3.43599937
H   -1.68385852   2.45098136  -3.73072252
H   -0.14650376   3.32604251  -3.89068384
H   -0.58269549   2.55245150  -2.34078615
O   -1.28156972   0.86771492   2.71788613
H   -0.73511851   0.51140310   2.00174632
C   -0.58624473   1.96726406   3.28361454
H   -1.21570112   2.35655602   4.08842609
H   -0.41536850   2.77996940   2.56036584
H    0.38381325   1.67899101   3.71796864
O   -1.47130464  -2.57956669  -0.50714814
H   -2.14310294  -1.92148539  -0.73961172
C   -2.11557346  -3.61467050   0.21811840
H   -1.34459659  -4.34721981   0.47199116
H   -2.89232863  -4.12682374  -0.37105712
H   -2.56949344  -3.25787135   1.15589681
O    0.17225648  -0.50805166   0.70961829
H   -0.23585684  -1.35698747   0.48339986
C    0.26023754   0.25810394  -0.48109524
H    0.72207462   1.21085362  -0.20822206
H   -0.72548257   0.47090232  -0.92364472
H    0.88986092  -0.21914069  -1.24829097
O   -0.59444933  -2.70799827   3.23123243
H   -1.48440359  -2.34684496   3.10484820
C   -0.09595430  -2.20409686   4.46010177
H    0.90697805  -2.62071277   4.58676308
H   -0.70513561  -2.51191668   5.32434851
H   -0.01284665  -1.10599731   4.46701786
O    3.17907649  -1.51133553  -2.02511227
H    2.42765872  -2.11717164  -2.10731446
C    3.64197509  -1.57894567  -0.68582606
H    4.48821213  -0.89065900  -0.61079590
H    3.99424693  -2.58465367  -0.40791726
H    2.87982809  -1.26375143   0.04394232
O    1.90531369  -3.20904248   1.96299392
H    1.04348771  -3.03038264   2.36766652
C    1.73335143  -4.26676236   1.03337496
H    2.71349841  -4.45506442   0.58690052
H    1.03259792  -4.01112803   0.22320649
H    1.38992411  -5.19895408   1.50861553
O    2.62290704   1.01754363  -3.08909383
H    2.89554598   0.17715194  -2.69181170
C    3.38902808   1.20478710  -4.26830213
H    3.06926819   2.15572471  -4.70299340
H    3.21965846   0.41374780  -5.01552906
H    4.47003004   1.26750712  -4.06760762
O    0.73115627  -2.92112860  -2.25101496
H   -0.02685098  -2.88947573  -1.64864765
C    0.29718963  -2.44359037  -3.51440879
H    1.16311371  -2.48600458  -4.18063827
H   -0.05399106  -1.40049387  -3.47700357
H   -0.50093883  -3.06346063  -3.95204923
