90
Energy:   -543.50589024
O   -3.49145761   2.63684100   0.25172699
H   -2.59816259   3.01038716   0.22155170
C   -3.52071358   1.67476357   1.29388095
H   -4.53382494   1.26404631   1.31392816
H   -3.31001877   2.11209053   2.28237990
H   -2.81857558   0.84335808   1.12492981
O    1.81885311   3.56038988  -0.39566598
H    2.24338246   2.91427085  -0.97938535
C    2.54496019   3.58195053   0.82287307
H    2.05341411   4.31472710   1.46855577
H    3.59249284   3.89391214   0.68821563
H    2.53565354   2.61006484   1.34068473
O    2.41345714   0.01315812   2.00850246
H    1.54167861  -0.19638877   1.64173883
C    2.46254082  -0.50859139   3.32679758
H    3.45097017  -0.26374124   3.72496968
H    2.34443854  -1.60312272   3.35561308
H    1.70656744  -0.05993972   3.99011746
O   -2.79703752  -0.66867130  -2.22134529
H   -2.18469748  -0.09524615  -2.70574858
C   -4.06208305  -0.02699876  -2.20013369
H   -4.73960484  -0.68632862  -1.65083090
H   -4.47794737   0.12659595  -3.20822241
H   -4.03734539   0.94480499  -1.68267563
O   -0.92470016   3.84285396   0.07101870
H    0.02987826   3.75988139  -0.07152559
C   -1.28789544   5.18372131  -0.21655336
H   -2.36599081   5.25960399  -0.05091097
H   -1.08236117   5.46525676  -1.26119243
H   -0.78908232   5.91034664   0.44373327
O   -1.03616321  -1.57149588   4.16439313
H   -0.94243703  -0.61021640   4.08969081
C   -2.40149230  -1.88907748   3.94632851
H   -2.48924272  -2.97539673   4.03405279
H   -2.75076778  -1.59826883   2.94322617
H   -3.06908050  -1.43125639   4.69298987
O   -0.89854221   0.95670711  -3.51587361
H   -0.01873003   0.74980973  -3.86450991
C   -0.90203150   2.32480287  -3.14059292
H   -1.90019640   2.54091676  -2.75014852
H   -0.71452581   2.99939958  -3.99061540
H   -0.16979759   2.55065584  -2.34964333
O   -0.75180993   1.12504909   3.36658217
H   -0.56871716   0.75679719   2.48948990
C   -0.27252792   2.46019000   3.38145714
H   -0.48678571   2.85982129   4.37638107
H   -0.77579070   3.10093692   2.64054736
H    0.81418841   2.52377682   3.21477883
O   -2.52893851  -1.89146007   0.29685744
H   -2.69233075  -1.51851949  -0.58214289
C   -2.12072623  -3.23900568   0.12360228
H   -1.94090337  -3.64378774   1.12325243
H   -1.18771751  -3.32973438  -0.45435996
H   -2.89165982  -3.85782572  -0.36168166
O   -0.25848065  -0.34557076   1.02090702
H   -0.95675639  -0.99948193   0.86847857
C   -0.10455716   0.40588569  -0.17247244
H    0.68559298   1.13756553   0.01671680
H   -1.01819557   0.95428554  -0.45050088
H    0.20257325  -0.21445917  -1.02898893
O    0.41086456  -3.30767523   2.47552982
H   -0.09176708  -2.70398600   3.04240196
C    0.62682866  -4.50446882   3.20599432
H    1.19416133  -5.17310488   2.55289045
H   -0.31201531  -5.01061917   3.48014964
H    1.21499350  -4.34277105   4.12288760
O    2.84472749   1.52551233  -2.03766004
H    2.50684818   1.10881169  -2.84427112
C    3.44071577   0.51036412  -1.24594933
H    3.81595063   0.99696321  -0.34156815
H    4.29046381   0.02275235  -1.74888110
H    2.72344011  -0.26811816  -0.94220881
O    1.63199722  -3.08902035  -0.06087348
H    1.18006431  -3.11272786   0.79564148
C    3.02839216  -3.08286988   0.18928072
H    3.52213181  -3.05605568  -0.78590509
H    3.36933723  -3.98566904   0.71983464
H    3.35406103  -2.19990744   0.76120244
O    1.71055584   0.05553526  -4.17699864
H    1.62528615  -0.80979009  -3.74995721
C    2.42749311  -0.13037059  -5.38694647
H    2.51447684   0.85393653  -5.85498336
H    1.90729934  -0.79844229  -6.09111689
H    3.44383735  -0.52153780  -5.22320908
O    1.35037038  -2.30139885  -2.74314310
H    1.46316875  -2.59697465  -1.82753688
C    0.06877106  -2.72679044  -3.17797520
H   -0.04175815  -2.38564600  -4.21087837
H   -0.74878834  -2.28857793  -2.58438970
H   -0.04214655  -3.82239302  -3.16659050
