90
Energy:   -538.76213760
O   -2.95040081   2.86619972  -1.01568182
H   -2.06922733   3.22514277  -0.83370253
C   -3.54833601   2.54135244   0.22909989
H   -4.53995204   2.13852762   0.00568318
H   -3.67558322   3.41924035   0.88170873
H   -2.98544167   1.77453730   0.78400694
O    1.92019697   3.40459134   1.14689485
H    2.10033253   2.48765052   1.40222600
C    3.07880151   3.90694163   0.50050992
H    2.85864995   4.94043975   0.21961824
H    3.32962789   3.35013885  -0.41591473
H    3.96317152   3.91252091   1.15673845
O    2.11691059   0.70021108   1.93051337
H    1.31859252   0.27231433   1.58697894
C    2.17738272   0.44284182   3.32429885
H    3.08231066   0.93182660   3.69508789
H    2.25059721  -0.63136615   3.55558701
H    1.31642638   0.85813922   3.87116226
O   -2.97209359  -1.47465106  -2.03354921
H   -2.45157336  -1.03442580  -2.72179603
C   -4.19451872  -0.76731652  -1.89980164
H   -4.76844438  -1.27641518  -1.12075537
H   -4.79302113  -0.77399740  -2.82420823
H   -4.04861648   0.27871676  -1.58786536
O   -0.32514637   3.82632281  -0.52180008
H    0.42573587   3.73538387   0.08345131
C    0.19245297   4.13045970  -1.80715041
H   -0.66652591   4.22949589  -2.47635316
H    0.84335425   3.33501536  -2.20259086
H    0.75169727   5.07895056  -1.82685405
O   -1.23483055  -0.84878970   4.33454091
H   -1.31135332   0.06436605   4.02035287
C   -2.51810229  -1.44591864   4.23870533
H   -2.41380981  -2.47383190   4.59647984
H   -2.89463489  -1.48099573   3.20440840
H   -3.26993879  -0.94099861   4.86526337
O   -1.33601240  -0.10222271  -3.87138004
H   -0.37796469  -0.15400911  -4.00511870
C   -1.69096467   1.27060555  -3.82796106
H   -2.77310844   1.31067006  -3.67681574
H   -1.45729922   1.80008335  -4.76488745
H   -1.20991219   1.80809542  -2.99581294
O   -1.36643263   1.61512715   2.97603254
H   -0.98547467   1.20262790   2.18664121
C   -0.92021527   2.96116201   3.01620717
H   -1.35851566   3.41084690   3.91128341
H   -1.25167164   3.54526767   2.14343309
H    0.17517435   3.04388913   3.09402197
O   -2.41624088  -2.11360964   0.64836309
H   -2.65410110  -1.96386086  -0.27868659
C   -1.91645772  -3.43691361   0.75614603
H   -1.65339213  -3.58879800   1.80648542
H   -1.01134258  -3.60027966   0.15046011
H   -2.66279493  -4.19734033   0.47774107
O   -0.41428277  -0.12652847   0.94798152
H   -1.03672611  -0.86873704   0.95865819
C   -0.31843339   0.33562945  -0.38983638
H    0.38646993   1.17142804  -0.38373552
H   -1.27952727   0.70248559  -0.78289167
H    0.06823931  -0.43204984  -1.07826217
O    0.53239578  -2.66578787   3.10686385
H   -0.08597055  -2.04091947   3.51378626
C    0.85329937  -3.64829666   4.07857942
H    1.55051289  -4.34387954   3.60366579
H   -0.02670403  -4.22081086   4.41114345
H    1.34697225  -3.22300673   4.96638171
O    2.79146638   1.37180490  -2.20604998
H    2.32321307   0.86491476  -2.88592092
C    3.33843119   0.44685579  -1.27985755
H    3.86225252   1.03455353  -0.52110345
H    4.06541811  -0.23881311  -1.74259452
H    2.56716329  -0.15447288  -0.77357010
O    1.74641054  -2.84439557   0.56674878
H    1.27873130  -2.75083315   1.40992460
C    3.13190463  -2.67811224   0.82226740
H    3.64365808  -2.78652971  -0.13785720
H    3.53182742  -3.43945461   1.51016048
H    3.37318046  -1.68284470   1.22724373
O    1.46590183  -0.43564723  -3.96433756
H    1.51231924  -1.22827671  -3.40935359
C    2.24938459  -0.67470073  -5.12258708
H    2.18605348   0.22785111  -5.73648817
H    1.87701283  -1.52115464  -5.72061082
H    3.31034843  -0.85466421  -4.88860801
O    1.44154677  -2.60314391  -2.21718683
H    1.55697656  -2.71663576  -1.26208535
C    0.23115763  -3.24584120  -2.58383664
H    0.11667336  -3.10832594  -3.66247843
H   -0.64968136  -2.80818102  -2.08850486
H    0.24444063  -4.32744113  -2.37709405
