90
Energy:   -536.55610694
O   -3.08723272   2.21430890   0.49321487
H   -2.29880262   2.67673977   0.17234272
C   -3.18756980   2.45169343   1.88824707
H   -4.08073634   1.92379920   2.23330709
H   -3.30711991   3.51932712   2.13041107
H   -2.32320671   2.06286079   2.44901703
O    1.94771104   3.16846093  -1.08625937
H    2.58372335   2.56869841  -0.66889078
C    2.57664916   4.43216703  -1.22774261
H    1.84648288   5.09543692  -1.69935204
H    3.46882751   4.39336109  -1.87217198
H    2.86509850   4.87419468  -0.26120970
O    2.77237288  -0.57045616   1.90151753
H    1.88466514  -0.80147863   1.59002619
C    2.86694182  -0.96274466   3.26155438
H    3.87282477  -0.69529147   3.59644763
H    2.73777587  -2.04744976   3.40122660
H    2.14247899  -0.44070035   3.90607022
O   -4.21607004  -0.31467474   0.09266951
H   -3.85895336   0.57416552   0.23707842
C   -5.55248091  -0.17301694  -0.36172331
H   -5.93946118  -1.18340103  -0.51937942
H   -5.62157807   0.37181351  -1.31627173
H   -6.20043137   0.32990968   0.37312522
O   -0.83008350   3.53213286  -0.56729623
H    0.12087030   3.43401000  -0.72376359
C   -1.39140337   4.16101278  -1.70833253
H   -2.46268888   4.26377830  -1.51527350
H   -1.26551992   3.56639423  -2.62667858
H   -0.97856059   5.16638195  -1.88601486
O   -0.75669340  -1.15441985   4.10551560
H   -0.43902658  -0.25476012   3.93781515
C   -2.14113329  -1.18644841   3.79756407
H   -2.48270084  -2.20674326   3.99202546
H   -2.34732468  -0.95290648   2.74128731
H   -2.73258566  -0.50274793   4.42646397
O   -1.38337175  -0.04858770  -3.39368288
H   -0.68748756   0.62493952  -3.41669489
C   -2.58139252   0.58448210  -2.97356074
H   -3.35461391  -0.18830388  -2.95317185
H   -2.90871706   1.37675479  -3.66489276
H   -2.50284531   1.01555063  -1.96322040
O    0.11633731   1.31022948   2.96570812
H    0.11430110   0.73320461   2.18759410
C    0.92614626   2.43552805   2.66496508
H    0.91743097   3.07488480   3.55188796
H    0.54020312   3.02274010   1.81702215
H    1.97137417   2.16233506   2.45132627
O   -2.20554550  -2.24342565   0.37310938
H   -2.97947930  -1.67409710   0.24935655
C   -1.91170380  -2.84791627  -0.87620320
H   -1.03761895  -3.48563176  -0.71878705
H   -1.66133142  -2.11199313  -1.65627252
H   -2.73364109  -3.48055362  -1.24629291
O    0.07275166  -0.61772742   0.91694232
H   -0.62043264  -1.28161301   0.78588995
C    0.21942768   0.09731464  -0.29950117
H    1.00389987   0.84080697  -0.13425066
H   -0.69885235   0.62948222  -0.59333239
H    0.53061928  -0.54699917  -1.13663726
O    0.42780500  -3.29723993   2.63471240
H    0.01072278  -2.59117694   3.15040684
C   -0.47363755  -4.39196939   2.59595007
H    0.01184638  -5.17814570   2.01138410
H   -1.42683887  -4.14074162   2.10496210
H   -0.69406010  -4.79693651   3.59604649
O    3.69609878   1.31941117   0.05645644
H    3.48687532   0.70666429   0.77700490
C    4.28595490   0.56646215  -0.99124166
H    4.51530362   1.27192047  -1.79449313
H    3.60923053  -0.20267734  -1.39527867
H    5.22505436   0.07808335  -0.68734087
O    1.69118990  -3.42513314   0.08234223
H    1.21117804  -3.32468327   0.91775931
C    3.02030519  -3.81146140   0.39336760
H    3.54681851  -3.92016942  -0.55870987
H    3.06997205  -4.77573338   0.92298075
H    3.55285674  -3.05739326   0.99382360
O    0.73734502   1.86704315  -3.31483943
H    1.16893124   2.34707228  -2.59253158
C    1.72257397   1.06765292  -3.94953066
H    1.21949343   0.53390781  -4.76040138
H    2.16518405   0.32066503  -3.27212181
H    2.53723040   1.66509904  -4.38790307
O    2.24931472  -2.22994375  -2.43914177
H    2.04182347  -2.61444231  -1.57454272
C    1.21786939  -2.60765868  -3.33690884
H    1.46732675  -2.16627387  -4.30563774
H    0.22967270  -2.22819673  -3.03317661
H    1.14604254  -3.69881655  -3.46726508
