90
Energy:   -535.12410332
O   -0.64875392   3.48021557   0.62608765
H   -1.28583019   2.96160815   1.13951090
C   -1.22718463   3.73803168  -0.64335418
H   -0.49649887   4.32292024  -1.20858767
H   -2.15617758   4.32557334  -0.57594334
H   -1.43868261   2.81724141  -1.20920859
O    3.77518026  -0.91465290  -0.51662252
H    3.83040750  -0.26256808   0.19763138
C    3.93385926  -0.22238434  -1.74467748
H    3.86903944  -0.97164831  -2.53833175
H    4.91106159   0.27865719  -1.82720215
H    3.14417212   0.52578159  -1.91619802
O   -3.84900480  -1.52885034  -0.98509867
H   -3.22549105  -2.06031077  -0.46818119
C   -5.15950788  -1.95872759  -0.65295261
H   -5.84908817  -1.34989340  -1.24395613
H   -5.39893922  -1.80963208   0.41157568
H   -5.33661413  -3.01623044  -0.90414658
O    3.64551774   1.08995970   1.47397938
H    3.16081126   1.87571878   1.18061004
C    4.72772362   1.52781423   2.27998659
H    5.26292499   0.63035070   2.60186217
H    4.39595515   2.06868623   3.18007797
H    5.43512174   2.16852801   1.73057683
O   -3.14812873   0.93073985  -2.18568966
H   -3.37042942   0.09337278  -1.75230522
C   -3.94858314   1.03752664  -3.35205284
H   -3.68546830   1.98612801  -3.82787974
H   -5.02661626   1.05555496  -3.12778314
H   -3.75743877   0.22863688  -4.07450596
O   -0.70392520  -0.30508835   0.71057219
H   -1.21025794   0.44046762   1.06581398
C    0.28625409   0.22194248  -0.15794221
H    0.84724500  -0.63112177  -0.54916567
H    0.99450096   0.88809881   0.35916458
H   -0.14420456   0.76804977  -1.01190328
O    0.53845410  -1.60360553  -3.18833269
H    0.99221284  -2.17314298  -2.54946387
C   -0.85744450  -1.77714268  -3.00425193
H   -1.35326245  -1.12859735  -3.73160241
H   -1.19370200  -1.48139244  -1.99815054
H   -1.18548096  -2.81186016  -3.19007218
O    1.15753610   1.14917116  -3.49664533
H    0.94958869   0.20362095  -3.46323965
C    0.00081561   1.82821038  -3.95863798
H    0.25249614   2.89176238  -3.99024919
H   -0.86307451   1.70163640  -3.28748209
H   -0.29811596   1.51787300  -4.97210133
O    0.65457199   0.60658886   4.41875997
H    1.34563262   0.00517097   4.10387110
C    0.77124708   1.81673005   3.68767927
H   -0.01440117   2.48260737   4.05489777
H    0.62142441   1.67606372   2.60576269
H    1.74102604   2.31513254   3.84227891
O   -2.09796337   0.05669127   4.22716173
H   -1.17784161   0.24404000   4.46527867
C   -2.18867400  -1.32366871   3.91265944
H   -3.23138559  -1.51743622   3.64677999
H   -1.92728632  -1.97179520   4.76376805
H   -1.55929154  -1.60650797   3.05437219
O   -1.88024127  -2.81232932   0.54876985
H   -1.36454325  -1.99629917   0.62984781
C   -0.97038997  -3.87479913   0.31241779
H   -1.56787534  -4.78618057   0.22364674
H   -0.25564374  -4.01428706   1.13852813
H   -0.40123379  -3.74738826  -0.62171552
O    2.16041739   3.26189522   0.52525536
H    1.21193444   3.44811117   0.58949702
C    2.54036970   3.42614698  -0.83164971
H    3.61132116   3.21263485  -0.88606243
H    2.37777436   4.45202837  -1.19758340
H    2.01869596   2.72968990  -1.50661739
O    2.05725515  -3.00646468  -1.24136335
H    2.68077197  -2.32565224  -0.94785954
C    2.81468806  -4.11363339  -1.70288973
H    2.09694941  -4.87099170  -2.02960798
H    3.44359613  -4.55672872  -0.91490591
H    3.45825414  -3.86091556  -2.56005584
O   -2.35899040   1.67021687   1.96068209
H   -2.38518082   1.19802646   2.80612491
C   -3.58452347   1.42169534   1.29072723
H   -3.53812290   1.96081411   0.34063084
H   -4.45781640   1.79129655   1.85066626
H   -3.73966140   0.35396276   1.07014458
O    2.63979305  -0.97776929   3.16016726
H    3.02647714  -0.33649198   2.54562507
C    2.14219379  -2.06269091   2.39343795
H    1.71024672  -2.77549657   3.10112079
H    2.93184087  -2.58031518   1.82660471
H    1.35161232  -1.75873094   1.68961510
