90
Energy:   -538.15305527
O   -2.49030545   2.91410112  -1.98352039
H   -1.66096290   3.16819975  -1.55218747
C   -3.21510246   2.09900192  -1.07642812
H   -4.14618522   1.82180566  -1.57815746
H   -3.47327140   2.62570127  -0.14437988
H   -2.67925310   1.17301489  -0.81529444
O    1.45428549   3.28437608   1.62452441
H    1.47816225   2.43202662   2.08425647
C    2.21077568   4.20803879   2.39075126
H    2.17338612   5.16251705   1.85871886
H    3.26731155   3.91361681   2.48987230
H    1.79714881   4.36308047   3.39953876
O    1.35971991   0.72770740   2.73899750
H    0.86061228   0.17998244   2.11504861
C    1.27408877   0.11351663   4.01491708
H    1.84152939   0.74331355   4.70546192
H    1.71547712  -0.89528001   4.03173995
H    0.23938553   0.04631058   4.38592907
O   -2.46541707  -1.22328080  -2.71500502
H   -1.78588452  -0.77455500  -3.23969917
C   -3.72078273  -0.96009971  -3.32107973
H   -4.47467121  -1.47279572  -2.71752349
H   -3.78585409  -1.34752067  -4.34988878
H   -3.96847240   0.11282048  -3.33749390
O    0.00279134   3.56962445  -0.76906038
H    0.49161977   3.53922920   0.06673037
C    0.95262504   3.60207888  -1.82229180
H    0.38508085   3.63612268  -2.75621890
H    1.59348225   2.70677065  -1.84470907
H    1.60015026   4.49202152  -1.78368468
O   -2.14229640  -1.23089318   3.66376758
H   -2.27427049  -0.39471333   3.19280116
C   -2.79875670  -1.12723016   4.91710218
H   -2.64008459  -2.07734981   5.43438452
H   -3.88414944  -0.97017135   4.81693993
H   -2.38792565  -0.32278537   5.54707340
O   -0.39643629   0.03856666  -4.12276946
H    0.53328294   0.19018892  -3.89681344
C   -0.91622549   1.25157009  -4.64332267
H   -1.96398424   1.06302834  -4.89259928
H   -0.40025813   1.57644451  -5.56038953
H   -0.88181306   2.07642328  -3.91448091
O   -2.19851195   1.10448735   2.08750735
H   -1.49441077   0.72581213   1.54045170
C   -1.80771895   2.42164459   2.44093545
H   -2.61189477   2.83334675   3.05679888
H   -1.67914250   3.07654878   1.56495261
H   -0.87877580   2.44545566   3.03193037
O   -1.94732030  -2.51160781  -0.32006099
H   -2.22582633  -2.11760931  -1.16007459
C   -3.04728588  -2.44298879   0.57319201
H   -2.71632406  -2.89094366   1.51408834
H   -3.92187449  -3.00828788   0.21498949
H   -3.36315303  -1.40848929   0.78011243
O   -0.28222024  -0.44462741   0.72793093
H   -0.77256105  -1.23516986   0.45768697
C    0.28130362   0.13225673  -0.43919345
H    0.82995940   1.02133172  -0.11669120
H   -0.48130297   0.44756362  -1.16843285
H    0.98999258  -0.54085337  -0.94659869
O    0.05811431  -3.01838058   3.65524013
H   -0.71569534  -2.43559873   3.65255529
C   -0.10717858  -3.95815855   2.60546425
H    0.77301652  -4.60657289   2.62280307
H   -0.16139619  -3.48263037   1.61364232
H   -0.99939873  -4.59014299   2.73705527
O    3.70460044   0.27862511  -0.98918011
H    3.58000726  -0.60492326  -0.61203015
C    3.99905143   1.16486334   0.07872166
H    4.13640273   2.15524862  -0.36372249
H    4.92550710   0.89703626   0.61044138
H    3.18244067   1.23002747   0.81470932
O    3.01458116  -2.27190304  -0.03996776
H    2.26116076  -2.76334357  -0.39950520
C    2.93393619  -2.33498684   1.37497062
H    3.78984569  -1.77655210   1.76362826
H    2.99572491  -3.36530293   1.75890841
H    2.01622739  -1.87152996   1.76968013
O    2.28095711   0.41219138  -3.39048959
H    2.80366119   0.45363610  -2.57594306
C    3.04055246  -0.30058231  -4.35355883
H    2.43716390  -0.33790004  -5.26461033
H    3.25604159  -1.33529712  -4.04419331
H    3.99358930   0.19542689  -4.59537070
O    0.64573485  -3.43399559  -1.07335907
H   -0.27269201  -3.27955929  -0.80677923
C    0.73206946  -3.20765097  -2.47116028
H    1.77291764  -3.38595213  -2.75458392
H    0.47417905  -2.17432228  -2.75134182
H    0.09739290  -3.89416515  -3.05310638
