90
Energy:   -536.23049064
O   -3.06285719   2.27859739  -0.79780434
H   -2.27158786   2.80107885  -0.59948831
C   -3.97614722   2.45726187   0.27294965
H   -4.86146675   1.86203526   0.03336706
H   -4.29165933   3.50558514   0.39231360
H   -3.57683272   2.10274971   1.23609366
O    1.76637080   3.34713248   0.87168811
H    1.90348817   2.66458923   1.54530285
C    2.66085463   3.08279809  -0.19721776
H    2.49310640   3.86079311  -0.94693070
H    2.47897154   2.10604814  -0.67224977
H    3.71710098   3.12792096   0.11114066
O    1.90176180   1.05947860   2.51849506
H    1.35772110   0.41100336   2.04740819
C    2.45370083   0.41394487   3.65479752
H    3.06344087   1.15847722   4.17380992
H    3.10386160  -0.43398495   3.38818297
H    1.68384956   0.05462346   4.35550751
O   -1.96301532  -1.42674784  -2.57085219
H   -1.41475957  -0.73781824  -2.97485085
C   -3.31851615  -1.02825533  -2.69873877
H   -3.92209800  -1.81532270  -2.23863105
H   -3.63433236  -0.92564083  -3.74874244
H   -3.53490705  -0.08297082  -2.17682928
O   -0.77714207   3.85681956  -0.22453504
H    0.10805288   3.74644400   0.15318233
C   -0.86031323   5.17227650  -0.74911998
H   -1.86350041   5.27959588  -1.17052625
H   -0.13075623   5.35631598  -1.55326759
H   -0.72956716   5.94690823   0.02264973
O   -3.18364918  -1.42459254   2.24600773
H   -2.83879931  -0.58247755   2.57818867
C   -3.76184488  -1.18105753   0.97364214
H   -4.14523060  -2.13981539   0.61408135
H   -3.03116583  -0.80834464   0.23881524
H   -4.60315454  -0.47180116   1.01758294
O   -0.30407922   0.61314172  -3.60098072
H    0.64993677   0.76161353  -3.52203215
C   -0.94745265   1.87106232  -3.47354374
H   -2.02109529   1.68548345  -3.56485181
H   -0.65516175   2.58018524  -4.26378930
H   -0.76482436   2.34504995  -2.49642555
O   -1.67445568   0.87538088   2.85102707
H   -1.02092165   0.50480775   2.23947814
C   -1.26530558   2.19575772   3.16998626
H   -2.01235915   2.59822363   3.85949142
H   -1.22569342   2.85351786   2.28762590
H   -0.28543058   2.22783851   3.67157686
O   -0.64931482  -2.85865417  -0.54396481
H   -1.22359600  -2.44854944  -1.20762022
C   -1.34698253  -3.96573411   0.00391069
H   -0.68591907  -4.41595559   0.74941784
H   -1.58512246  -4.73322571  -0.74909884
H   -2.28087336  -3.67241728   0.50848029
O    0.02416471  -0.47230722   1.00694000
H   -0.11618462  -1.38845364   0.72515805
C   -0.06742859   0.35105598  -0.14467516
H    0.09305521   1.37928222   0.19070665
H   -1.05627568   0.29959342  -0.62666103
H    0.69943544   0.11431875  -0.89876558
O   -0.84348171  -2.78119912   3.17004135
H   -1.67155894  -2.44841906   2.79325386
C   -0.73975136  -2.27859069   4.49259893
H    0.19835160  -2.66299744   4.90208580
H   -1.56091715  -2.61918023   5.14257034
H   -0.70220186  -1.17853026   4.52773309
O    3.50995945  -0.76973055  -1.23436685
H    3.05906789  -1.60022975  -1.44741887
C    3.75675250  -0.76002908   0.16260589
H    4.26496245   0.18210198   0.38530953
H    4.41104150  -1.58526469   0.48458329
H    2.83121998  -0.79774860   0.75820989
O    1.94787903  -2.75698908   2.57789376
H    0.99538064  -2.77394228   2.75362846
C    2.24431123  -3.83744247   1.70767414
H    3.32095563  -3.80349747   1.52013806
H    1.72639520  -3.75774681   0.73907261
H    2.00553157  -4.81738732   2.14979371
O    2.44111788   0.95818161  -3.14886711
H    2.88073380   0.43135034  -2.46504701
C    3.33428899   1.07198758  -4.24514597
H    2.82335151   1.66816739  -5.00606497
H    3.58868894   0.09694211  -4.68938052
H    4.27038645   1.58753895  -3.97924062
O    1.84073803  -2.93523029  -1.87611445
H    1.01248842  -2.99095260  -1.37679403
C    1.50826246  -2.72696982  -3.23942709
H    2.45249993  -2.66658418  -3.78738180
H    0.95733868  -1.78774358  -3.40409161
H    0.91911337  -3.55452870  -3.66466465
