90
Energy:   -539.31055664
O   -0.65233804  -3.61685646   2.07343889
H   -1.53057747  -3.46114187   1.69545511
C   -0.74336696  -3.40878856   3.47378001
H    0.25430040  -3.58829119   3.88356513
H   -1.44337988  -4.10446937   3.96243883
H   -1.03864318  -2.37988051   3.73250283
O   -3.53871559   1.48345730  -0.96560275
H   -3.03298132   2.27903780  -1.18855517
C   -4.37932050   1.18461188  -2.06860256
H   -4.94166886   0.28603535  -1.80062914
H   -3.81347187   0.97139917  -2.98900084
H   -5.10141849   1.98800187  -2.28288359
O    3.22683815   2.53317121  -2.93005919
H    3.48746965   1.62896108  -2.70006237
C    4.38802544   3.21574786  -3.37533097
H    4.07651007   4.23234829  -3.63021711
H    4.83134863   2.75909854  -4.27405967
H    5.16641787   3.28172513  -2.59910320
O    0.41528114   2.29216113  -2.91506379
H    1.36418606   2.46035894  -3.01361439
C    0.21483714   0.89070295  -3.00600858
H   -0.85903707   0.71895082  -2.89295738
H    0.73513692   0.33422879  -2.21077151
H    0.52586425   0.47889712  -3.97886799
O   -3.06407125  -2.79627384   0.85852094
H   -2.68878359  -2.06902525   0.34016592
C   -3.94297886  -2.23185622   1.81846258
H   -4.35680434  -3.06465840   2.39350536
H   -4.78085088  -1.68507762   1.35826590
H   -3.42942937  -1.55503262   2.51914373
O    2.10607046  -2.25476374  -3.08250731
H    1.20092565  -2.41668066  -2.77768105
C    2.13896877  -2.49496311  -4.48027544
H    3.16547502  -2.30798600  -4.80709295
H    1.47352039  -1.82185467  -5.04319711
H    1.88213334  -3.53404640  -4.73934839
O   -0.50205450  -2.55717940  -2.12491419
H   -0.95269309  -1.89488333  -1.58020137
C   -0.99652609  -3.83254633  -1.74878811
H   -0.47851086  -4.56660643  -2.37192629
H   -2.07847590  -3.93802942  -1.92495635
H   -0.79099024  -4.07423504  -0.69421762
O    1.47255321   2.47043233   1.55149600
H    1.83621895   1.60796128   1.80112411
C    1.98040652   2.79642365   0.26761577
H    1.56088626   3.77052288   0.00187408
H    1.67872539   2.07242310  -0.50542306
H    3.07822972   2.88227579   0.25379717
O   -2.03244475   0.07039817   4.12052968
H   -1.71099499   0.87408917   3.68558820
C   -2.46557168   0.42959025   5.42280304
H   -2.82438335  -0.48714740   5.89854612
H   -3.29433564   1.15469288   5.41040204
H   -1.65348972   0.84062878   6.04276075
O   -1.02102474   2.36617138   2.85039869
H   -0.16293679   2.53529655   2.43385935
C   -2.01906961   2.96262611   2.03757523
H   -2.97904590   2.76262031   2.52123668
H   -2.05244102   2.53560733   1.02302181
H   -1.90105283   4.05415376   1.95145463
O    3.70815234  -0.11748805  -2.21614811
H    3.25245075  -0.90841285  -2.54048946
C    3.82913627  -0.23755073  -0.80778679
H    4.34451644   0.66144696  -0.45897219
H    4.42593180  -1.11225158  -0.50527918
H    2.85329739  -0.29029269  -0.30011160
O    1.93104521  -2.78438182   1.35821793
H    1.05842671  -3.12664561   1.60279050
C    2.41300226  -3.56706404   0.27763488
H    3.39649105  -3.16808411   0.01486121
H    1.76948079  -3.50340235  -0.61377111
H    2.53512115  -4.62889467   0.54292721
O   -1.75971879   3.51810337  -1.65034495
H   -1.00574616   3.12922467  -2.11802208
C   -1.37677987   4.81424832  -1.21918394
H   -2.23743164   5.23781317  -0.69443967
H   -1.12417005   5.48355516  -2.05643777
H   -0.52598875   4.79579517  -0.52019089
O    2.20370233  -0.14821215   2.31298595
H    2.21973178  -1.05781814   1.98014476
C    1.57796275  -0.16667089   3.58603074
H    1.56829557   0.86559613   3.94633137
H    2.12482732  -0.77926152   4.31982171
H    0.53682761  -0.52298857   3.54298825
O   -1.80241970  -0.65651588  -0.50111598
H   -2.41356036   0.08708075  -0.61063502
C   -0.83469664  -0.27957226   0.46529976
H   -0.15448760  -1.12837006   0.57639954
H   -1.27822980  -0.06631047   1.45047744
H   -0.24162040   0.59478965   0.15460834
