90
Energy:   -538.26124177
O   -2.92547585  -2.67861942   1.23304956
H   -2.09372168  -2.62429580   1.72666603
C   -2.77238518  -3.68075482   0.24066774
H   -3.71815651  -3.72874496  -0.30586563
H   -2.57439569  -4.67605489   0.66840044
H   -1.97314137  -3.44699450  -0.47998666
O    3.43851669  -1.75848770  -2.11745029
H    3.09614477  -2.36868512  -1.44747727
C    2.60359764  -1.86095220  -3.25979217
H    3.00341146  -1.16724276  -4.00437347
H    1.56086566  -1.57444185  -3.05146747
H    2.60538230  -2.87101736  -3.69858886
O   -2.51797703   3.46143439  -0.04617145
H   -2.96720103   2.89900852  -0.69447555
C   -1.39245528   4.04136797  -0.68602426
H   -0.89810117   4.67158620   0.05823658
H   -1.67023953   4.67705516  -1.54131078
H   -0.66645500   3.28957606  -1.03316955
O    1.23930012   2.19146639   2.52332147
H    0.27836216   2.30548074   2.56829065
C    1.73714509   3.10914779   1.56282940
H    2.82062259   2.96729582   1.52488559
H    1.53946506   4.15794693   1.83434422
H    1.33378551   2.92943244   0.55397818
O    4.12648792   0.95811988  -2.15958256
H    3.94009731   0.00750372  -2.16285877
C    5.53580972   1.12040065  -2.15629773
H    5.72809586   2.19673599  -2.15262534
H    6.01538958   0.69098653  -3.04982109
H    6.01185519   0.68552323  -1.26352695
O    2.91785939  -0.07236587   2.31832710
H    2.39167638   0.73166462   2.44116715
C    3.30446895  -0.12959296   0.95458523
H    3.89619906  -1.04104625   0.83378136
H    3.92955128   0.72564041   0.65354488
H    2.44338750  -0.18844390   0.27058770
O   -1.17650175  -2.06992689  -2.70461153
H   -0.71323813  -1.40086618  -2.17909478
C   -2.48826823  -1.59004353  -2.95263259
H   -2.99601564  -2.35567629  -3.54549366
H   -2.49588372  -0.65145710  -3.52863159
H   -3.06626388  -1.43508908  -2.02813949
O   -0.49242988  -2.30629548   2.60226018
H    0.43570264  -2.57329915   2.67777408
C   -0.67408541  -1.14958502   3.40323207
H   -1.72464759  -0.86239807   3.30665073
H   -0.05619565  -0.30079184   3.07075693
H   -0.46708499  -1.33360840   4.46909489
O    0.10599483  -0.05146819  -1.24070782
H    0.57803545   0.76923742  -1.44575229
C   -0.63047441   0.16225575  -0.04719666
H   -1.15601262  -0.77180568   0.16919194
H   -1.38172457   0.96110843  -0.14836451
H    0.01424843   0.39857349   0.81377007
O   -3.74134841   1.56921538  -1.72830264
H   -3.88841646   0.85358957  -1.09216274
C   -4.88489169   1.64350701  -2.56455816
H   -4.70246274   2.45442626  -3.27492063
H   -5.80494590   1.87869082  -2.00691476
H   -5.05305716   0.71858142  -3.13815241
O    2.31618025  -2.75922744   2.71757884
H    2.59196162  -1.83245934   2.65868223
C    3.29275592  -3.45134943   3.47902541
H    2.96656539  -4.49341359   3.53548092
H    3.38264655  -3.06562531   4.50660213
H    4.28968389  -3.43054301   3.01160799
O   -4.14304751  -0.34524747   0.27489803
H   -3.80810511  -1.20698543   0.56411172
C   -4.31744109   0.45871935   1.43064801
H   -4.69508382   1.42547921   1.08677806
H   -3.37514946   0.63366023   1.97310492
H   -5.05094287   0.03679033   2.13543760
O   -1.54437374   2.55246739   2.42270611
H   -1.92559414   2.88744873   1.59755050
C   -2.10681371   3.29806094   3.49054754
H   -1.66663319   2.90784844   4.41220936
H   -3.19998694   3.18397780   3.55935640
H   -1.87277497   4.37238393   3.42863391
O    1.62144775   2.21598785  -2.02584278
H    2.54115175   1.91317182  -2.05534306
C    1.14682691   2.28151379  -3.36112372
H    0.10981621   2.62418898  -3.30947364
H    1.15810423   1.30233576  -3.86496947
H    1.71231895   2.99667156  -3.97881736
O    2.37085854  -3.41094181  -0.05732087
H    2.40538966  -3.28876145   0.90304512
C    1.00757870  -3.54801666  -0.42503318
H    0.98696158  -3.68477310  -1.50963348
H    0.40980207  -2.65560444  -0.18204993
H    0.52809221  -4.42426533   0.03871062
