90
Energy:   -539.59711086
O   -3.03121973   2.41293669  -1.14778030
H   -2.22332394   2.79479953  -0.77373694
C   -3.64176165   1.62442053  -0.13881321
H   -4.55006705   1.20190435  -0.57693029
H   -3.93146469   2.21436124   0.74482667
H   -3.00354866   0.79088031   0.19386114
O    1.59565531   3.13745216   1.46891412
H    1.66070956   2.28744640   1.92900261
C    2.76095628   3.28676385   0.67373272
H    2.67128185   4.24912577   0.16255445
H    2.85679311   2.50110672  -0.09199276
H    3.68510854   3.30303898   1.27244388
O    1.56923258   0.52421317   2.49280380
H    0.94406906   0.11826479   1.87409566
C    1.55198077  -0.24177891   3.68674361
H    2.26151019   0.22922870   4.37245859
H    1.87098482  -1.28381615   3.52808632
H    0.56332652  -0.25105978   4.17177348
O   -2.27004311  -1.76122518  -2.74143617
H   -1.43842029  -1.71094185  -3.23570162
C   -3.05346141  -0.63461720  -3.10135838
H   -3.98633319  -0.70700611  -2.53567711
H   -3.30482433  -0.61643040  -4.17339535
H   -2.56990650   0.32009309  -2.84158881
O   -0.65953298   3.60189973  -0.14960932
H    0.12929035   3.46949223   0.39687881
C   -0.80632634   4.99673102  -0.36275519
H   -1.69930653   5.12796659  -0.97988467
H    0.04797465   5.43696723  -0.90047187
H   -0.95334564   5.55689268   0.57393130
O   -2.08803597  -1.39678103   3.89554573
H   -2.02903258  -0.45866080   3.66129733
C   -3.40692214  -1.83092058   3.60469201
H   -3.45590928  -2.88937700   3.87442422
H   -3.65912443  -1.73877516   2.53666553
H   -4.17006184  -1.29392149   4.18952284
O    0.61482336   1.47043871  -3.97586911
H    1.39673518   1.54549605  -3.40894444
C   -0.28243425   2.50696240  -3.61106616
H   -1.15735527   2.40769202  -4.25925117
H    0.14323431   3.51111685  -3.76357011
H   -0.62101828   2.42810630  -2.56611644
O   -1.84469925   1.17593188   2.81164106
H   -1.34510564   0.89948980   2.02907523
C   -1.43283817   2.49258781   3.14227892
H   -2.00527178   2.78830569   4.02565647
H   -1.64313636   3.21784415   2.34068349
H   -0.36226375   2.55284110   3.39331135
O   -2.45637581  -2.17470345   0.00816570
H   -2.50585552  -2.04456752  -0.95049986
C   -2.65379392  -3.55570674   0.26582788
H   -2.59496766  -3.68455333   1.34999726
H   -1.88022999  -4.18923134  -0.19571600
H   -3.64048663  -3.91366784  -0.06745677
O   -0.50463010  -0.26437969   0.74939395
H   -1.11470958  -0.99845285   0.58397657
C   -0.03771577   0.19883134  -0.50757078
H    0.64810778   1.02538536  -0.30277891
H   -0.84851360   0.57883493  -1.14864914
H    0.51469711  -0.57260427  -1.06659173
O   -0.15498126  -3.06375933   2.69388358
H   -0.84746288  -2.50381343   3.07513556
C    0.17066437  -4.05801929   3.65197325
H    0.95190265  -4.67978277   3.20637015
H   -0.68388220  -4.70767227   3.89789702
H    0.56503467  -3.63326759   4.58836815
O    3.33039847  -0.88198402  -0.58686119
H    2.77203821  -1.56145341  -0.18068581
C    4.30006541  -0.49177909   0.37231549
H    4.92036469   0.27381688  -0.10157987
H    4.95592814  -1.32260485   0.67620687
H    3.85068008  -0.05475521   1.27776582
O    1.69466122  -2.86479873   0.57000414
H    1.05065773  -2.87992983   1.29350524
C    1.10336851  -3.51066001  -0.54613650
H    1.84208883  -3.48469927  -1.35180612
H    0.19400357  -3.00029596  -0.90020043
H    0.85447334  -4.56440484  -0.34501376
O    2.91118307   1.23017503  -2.37745914
H    3.06854284   0.51293710  -1.74561190
C    4.01124048   1.26431541  -3.27258031
H    3.81772685   2.07761039  -3.97727098
H    4.11980539   0.33204821  -3.84866092
H    4.96616982   1.47235637  -2.76503106
O    0.21220831  -1.30645696  -3.97050681
H    0.31013095  -0.34867065  -4.07765066
C    1.51332952  -1.87045621  -3.93149114
H    1.38451427  -2.94945724  -3.81045966
H    2.11175227  -1.50091450  -3.08407952
H    2.08029496  -1.69629542  -4.85938959
