90
Energy:   -537.59394745
O   -3.22488754   3.01499392  -0.40779438
H   -2.26789127   3.15029717  -0.47317351
C   -3.44559763   1.65223804  -0.08111832
H   -4.52837617   1.51728031  -0.01138851
H   -3.00334648   1.37004649   0.88715808
H   -3.06458967   0.96326619  -0.85113654
O    2.21511704   3.13764037   0.08861782
H    2.79924193   2.36558422   0.12253959
C    2.33761481   3.82465455   1.32374518
H    1.67321385   4.69125604   1.26844220
H    3.36020668   4.18967418   1.50771224
H    2.02759991   3.21116669   2.18415250
O    2.25725107   0.34331719   2.89243844
H    1.42564065   0.83981017   2.91093488
C    2.68241967   0.16566276   4.23415537
H    3.62015492  -0.39522672   4.19490235
H    1.96342765  -0.41297273   4.83499544
H    2.87662848   1.11983008   4.74857251
O   -3.12043670  -1.40059689  -2.35526758
H   -2.63743112  -0.76458933  -2.90355880
C   -4.49995004  -1.27098377  -2.65969684
H   -5.02917379  -1.99434636  -2.03347484
H   -4.72648176  -1.50077469  -3.71262459
H   -4.89366058  -0.26839908  -2.43036458
O   -0.44383693   3.52783508  -0.73817205
H    0.47041254   3.36685515  -0.46130269
C   -0.43775980   4.64184738  -1.61650766
H   -1.47512660   4.80932384  -1.91867805
H    0.15800560   4.46352716  -2.52537664
H   -0.06986044   5.56124195  -1.13469751
O   -0.90826745  -0.51171411   4.64087543
H   -0.70340269   0.28238072   4.12525241
C   -2.18873217  -0.96915742   4.23628984
H   -2.40373300  -1.86388904   4.82681095
H   -2.22422548  -1.24647322   3.17110746
H   -2.98424643  -0.23275876   4.43032956
O   -1.63956094   0.48052603  -3.80273554
H   -0.67558609   0.56413932  -3.84947498
C   -2.17865949   1.78556909  -3.66573505
H   -3.26502089   1.67293547  -3.61457093
H   -1.94281152   2.43525300  -4.52309371
H   -1.84397761   2.28947151  -2.74549175
O   -0.26701672   1.61031705   2.82660344
H   -0.51572860   1.07388102   2.05926906
C   -1.06266433   2.78466399   2.80690776
H   -0.76964947   3.37730191   3.67777388
H   -2.13981924   2.56990703   2.88687082
H   -0.89616751   3.39606310   1.90621510
O   -2.52525925  -2.38408005   0.19315789
H   -2.81312798  -2.10802804  -0.68965022
C   -1.82450512  -3.60965659   0.05373207
H   -1.50743736  -3.90617196   1.05724185
H   -0.92505307  -3.51609897  -0.57476640
H   -2.45347404  -4.41474284  -0.35737809
O   -0.82747008  -0.25694361   0.87413294
H   -1.39133383  -1.02002264   0.67870690
C   -0.03131679  -0.00511709  -0.27271366
H    0.59758900   0.85722425  -0.03537399
H   -0.63228793   0.24482252  -1.16104986
H    0.62864158  -0.84955543  -0.52600435
O    1.95723518  -2.40010787   2.14764477
H    2.06802273  -1.47199748   2.40212561
C    0.81123180  -2.89697883   2.82019907
H    0.70113788  -3.94322426   2.52231482
H   -0.11067698  -2.36353764   2.54037406
H    0.91330439  -2.86300857   3.91619384
O    3.61785613   0.72580086   0.44431161
H    3.25823169   0.50217985   1.31556770
C    3.88608957  -0.49004786  -0.23561229
H    4.29045827  -0.21977944  -1.21486003
H    2.98085001  -1.09644528  -0.39561493
H    4.63330188  -1.11120137   0.28267278
O    1.79921887  -3.53352036  -0.40525440
H    1.83543914  -3.18667759   0.49852182
C    2.77756812  -4.55508303  -0.51377272
H    2.72315334  -4.93469342  -1.53769663
H    2.59204400  -5.39618386   0.17245430
H    3.80015064  -4.18464767  -0.34091450
O    1.16389395   0.54474384  -3.67245590
H    1.39569396  -0.36317613  -3.42674601
C    2.10579071   1.41041130  -3.05928048
H    1.82997245   2.42872805  -3.34640500
H    3.13676996   1.22699300  -3.40018640
H    2.08718594   1.34880869  -1.95990051
O    1.43812008  -2.13857811  -2.81531945
H    1.58880258  -2.65636869  -2.01057664
C    0.25044033  -2.62203361  -3.42213192
H    0.09565005  -2.02797943  -4.32691079
H   -0.63524812  -2.50141443  -2.77887123
H    0.32408766  -3.68048622  -3.71714289
