90
Energy:   -538.63264919
O   -3.32817017   2.28097536  -0.95450067
H   -2.51277536   2.77245992  -0.77562215
C   -3.69991637   1.61416459   0.24120077
H   -4.61998114   1.06561739   0.02197035
H   -3.90639334   2.30988955   1.06951917
H   -2.94202692   0.88919592   0.57705989
O    1.65959030   3.30592063   0.62813599
H    1.87579359   2.57251687   1.22294549
C    2.56984799   3.26106094  -0.45904032
H    2.31215613   4.09377284  -1.11909410
H    2.49290087   2.32859990  -1.03987841
H    3.61697297   3.38781977  -0.14243521
O    1.88592265   0.99164444   2.26986025
H    1.20501697   0.48177250   1.80637204
C    2.53235857   0.11761531   3.18130276
H    3.29609554   0.70800286   3.69475538
H    3.03261816  -0.72558861   2.67978026
H    1.84607033  -0.28771569   3.94123208
O   -2.43175480  -1.27027840  -2.37245717
H   -1.89427930  -0.62041450  -2.84913345
C   -3.79356462  -0.99807511  -2.66213490
H   -4.38482958  -1.73910011  -2.11736624
H   -4.02799726  -1.09513282  -3.73376846
H   -4.10779639   0.00276842  -2.32695144
O   -0.93443612   3.67545352  -0.39548244
H   -0.03326187   3.56354613  -0.05816215
C   -1.19641654   5.06770970  -0.46979772
H   -2.21529894   5.17572145  -0.85150089
H   -0.51625929   5.59220182  -1.15905200
H   -1.14555882   5.56300905   0.51247993
O   -1.12237404  -0.64317293   4.20006012
H   -0.90260351   0.30019534   4.18662551
C   -2.47830666  -0.77491855   3.80430315
H   -2.70919170  -1.84344636   3.82493393
H   -2.66096259  -0.40585077   2.78292999
H   -3.17266700  -0.26235517   4.48834980
O   -0.68527919   0.48239510  -3.70784309
H    0.27442809   0.56858705  -3.60806258
C   -1.23986263   1.78784823  -3.68021857
H   -2.32117133   1.67228335  -3.79380310
H   -0.87593810   2.42198652  -4.50375055
H   -1.05037981   2.31033524  -2.72949205
O   -0.25539925   2.03388916   3.86760790
H    0.58520667   1.83418659   3.42951676
C   -1.04879654   2.77870095   2.95749257
H   -1.99172445   2.99513778   3.46693076
H   -1.27858708   2.21927701   2.03715649
H   -0.58554459   3.73704546   2.67509080
O   -2.61020307  -1.79676698   0.43194730
H   -2.62753286  -1.63269707  -0.52262277
C   -2.05220746  -3.08480053   0.63723797
H   -2.04014262  -3.25341352   1.71747373
H   -1.01778210  -3.16391224   0.26780211
H   -2.64905639  -3.88565662   0.17336492
O   -0.29222273  -0.16957835   0.96971000
H   -1.04914324  -0.77394083   0.98522177
C   -0.03554037   0.16409445  -0.38502629
H    0.81974756   0.84524572  -0.38418086
H   -0.88248877   0.68017810  -0.86368421
H    0.22733331  -0.71320559  -0.99659753
O    0.43383556  -2.65680968   2.98693070
H   -0.12759314  -1.96150288   3.36078834
C    0.62989962  -3.63859640   3.99201153
H    1.26421287  -4.41410672   3.55415806
H   -0.31139875  -4.10985347   4.31551036
H    1.14260945  -3.24011068   4.88145804
O    3.25206001  -0.68265513  -1.01427276
H    2.86923667  -1.32369340  -0.39706980
C    4.35151193  -0.06403587  -0.36538953
H    4.77088449   0.65484729  -1.07448674
H    5.14392029  -0.77977559  -0.09597726
H    4.05565592   0.48476146   0.54239241
O    2.19955763  -2.55741218   0.78608299
H    1.55515703  -2.56443186   1.50935462
C    2.06065413  -3.77650132   0.07400067
H    2.79366574  -3.75193911  -0.73690985
H    1.06125503  -3.89653393  -0.37273299
H    2.27087031  -4.65953362   0.69757140
O    2.07968701   0.58432424  -3.20555229
H    2.52328084   0.16383540  -2.45399595
C    2.84113179   0.30073984  -4.36844330
H    2.32747454   0.78167672  -5.20530717
H    2.90578598  -0.77770485  -4.58187768
H    3.86355745   0.70663053  -4.31671465
O   -0.55114615  -3.42742403  -2.49057717
H   -1.26232596  -2.77031895  -2.46126065
C    0.50936328  -2.87997101  -3.25748572
H    1.30181091  -3.63295918  -3.28030605
H    0.92424121  -1.96107601  -2.81444440
H    0.21490951  -2.66267381  -4.29616577
