90
Energy:   -536.48471655
O   -3.75064094   2.05369493  -1.34464070
H   -3.01270924   1.85180387  -1.93887978
C   -3.36476584   1.67173591  -0.03401433
H   -4.20725795   1.90599671   0.62234999
H   -2.48498845   2.22595682   0.32876421
H   -3.15556501   0.59383873   0.05054347
O    2.66461371   3.35649966   0.16428427
H    3.11587663   2.50817045   0.28725823
C    3.17893131   4.26133726   1.12827603
H    2.65993753   5.21151055   0.97562821
H    4.25924475   4.43963550   1.01033566
H    2.99189595   3.93249882   2.16251990
O    2.19543761  -0.66084432   2.42053963
H    1.32036556  -0.72992494   2.01078355
C    2.02425575  -0.08830901   3.70717628
H    3.01942075  -0.01772696   4.15455753
H    1.39614984  -0.70649446   4.36756030
H    1.59492814   0.92506129   3.66798747
O   -2.93734678  -1.19289251  -2.86666238
H   -2.57487084  -0.31487640  -3.05672073
C   -4.35115475  -1.07866664  -2.84149842
H   -4.74316172  -2.07639645  -2.62620568
H   -4.76835320  -0.74871941  -3.80578967
H   -4.70859900  -0.39461255  -2.05595342
O   -0.11127260   3.87620992   0.21108264
H    0.84849161   3.75436070   0.16180077
C   -0.58198417   4.12254097  -1.10432049
H   -1.66449937   4.25743418  -1.03049737
H   -0.38860089   3.28233835  -1.78947726
H   -0.15339718   5.03616342  -1.54521111
O   -1.44240499  -1.56095666   3.97756327
H   -1.37615525  -0.59534260   3.93726768
C   -2.69819306  -1.92945522   3.43007908
H   -2.75626081  -3.01999914   3.48325141
H   -2.80558980  -1.63291441   2.37494553
H   -3.54700358  -1.51440792   3.99579436
O   -1.71578239   1.33622962  -3.22074929
H   -0.75645731   1.22065127  -3.28974432
C   -2.14524764   2.06067646  -4.36235786
H   -3.22782619   2.18194537  -4.26853489
H   -1.94173547   1.52873825  -5.30490859
H   -1.69356167   3.06311639  -4.42457762
O   -1.13938889   1.17899055   3.28343410
H   -0.87682983   0.79436065   2.43399555
C   -1.04212159   2.58938734   3.16573218
H   -1.34133868   3.00657609   4.13108594
H   -1.71275920   2.99897567   2.39420128
H   -0.01671495   2.92842446   2.95038970
O   -2.19128723  -2.02345064  -0.28921687
H   -2.46959203  -1.79508081  -1.18855937
C   -1.97628676  -3.42509718  -0.24803971
H   -1.66345648  -3.66511638   0.77177066
H   -1.18103370  -3.75369828  -0.93533239
H   -2.88777217  -4.00183225  -0.47018458
O   -0.36024507  -0.34750875   1.06015511
H   -0.91097628  -1.01343474   0.62236408
C    0.21654326   0.46530775   0.05061147
H    0.83353586   1.20978388   0.56106288
H   -0.53790930   0.99954289  -0.54786283
H    0.86458545  -0.10335491  -0.63454648
O    0.23509374  -3.34074185   2.54077893
H   -0.34613488  -2.72333979   3.00919248
C    1.09310828  -3.93657629   3.50063629
H    1.74087357  -4.62895262   2.95611783
H    0.54419469  -4.51083970   4.26332413
H    1.73332574  -3.20154617   4.01311035
O    3.75013217   0.81089702   0.60400785
H    3.31234281   0.26513295   1.27401183
C    4.22158961  -0.05526320  -0.41580984
H    4.71187535   0.57573951  -1.16209443
H    3.40913987  -0.60606708  -0.91512722
H    4.96003208  -0.78420448  -0.04685908
O    1.50638163  -3.06508609   0.00624686
H    1.03205970  -3.13372499   0.84810830
C    2.85137689  -3.45264296   0.23716069
H    3.37121836  -3.36949044  -0.72113765
H    2.94022840  -4.49390752   0.58450901
H    3.36368050  -2.79989575   0.96120726
O    1.01817394   0.84561654  -3.35194463
H    1.27699695  -0.05790460  -3.11724593
C    2.08832066   1.70615320  -2.99585978
H    1.78009669   2.71954900  -3.26699100
H    3.01824610   1.47540618  -3.53878872
H    2.30385608   1.69230137  -1.91598481
O    1.49539952  -1.81721446  -2.51775183
H    1.49717127  -2.25562950  -1.65391597
C    0.51659492  -2.45533271  -3.32228923
H    0.52791112  -1.94923026  -4.29142155
H   -0.49875308  -2.37006206  -2.90446787
H    0.73435184  -3.52152437  -3.49138858
