90
Energy:   -535.42282414
O   -3.40625980   2.57076982  -1.21692330
H   -2.53822374   2.98926162  -1.11792184
C   -3.85691393   2.20307249   0.07700224
H   -4.83562980   1.73326858  -0.05293905
H   -3.97999656   3.06883922   0.74638700
H   -3.19166697   1.47582438   0.56825981
O    1.67406513   3.30932603   0.22181697
H    1.85372796   2.54584099   0.79035468
C    2.49231654   3.18964855  -0.93086498
H    2.27733522   4.05750857  -1.56021960
H    2.27401060   2.28191901  -1.51494282
H    3.56733617   3.19902380  -0.69207170
O    1.86310304   0.89264864   1.69504042
H    1.08867090   0.40903442   1.37131922
C    2.06752231   0.52126516   3.04885756
H    2.94339005   1.07501786   3.39771117
H    2.27352584  -0.55393214   3.16840104
H    1.21639457   0.78600306   3.69559765
O   -2.58268933  -1.60586700  -2.44688643
H   -2.01430321  -1.06023542  -3.01048793
C   -3.87852235  -1.02855885  -2.45500231
H   -4.50575599  -1.65547853  -1.81544395
H   -4.32860823  -1.00799788  -3.45987905
H   -3.89080011  -0.00543657  -2.04775866
O   -0.86224721   3.79187853  -0.93604121
H    0.01997128   3.67756332  -0.55257564
C   -1.02088613   5.16652762  -1.24862295
H   -2.01966880   5.27751094  -1.67943738
H   -0.28794989   5.52137252  -1.99001819
H   -0.95827954   5.81456852  -0.36042211
O   -1.70907970  -0.64468537   4.16922756
H   -1.67227132   0.27126287   3.85600682
C   -2.94924136  -1.19277160   3.75193353
H   -2.97411845  -2.22452088   4.11298722
H   -3.05861017  -1.21177838   2.65628097
H   -3.81418962  -0.66093747   4.17830696
O   -0.84748954   0.11957281  -3.88298852
H    0.10827878   0.22366546  -3.76426648
C   -1.41348948   1.41707187  -3.97612304
H   -2.49017369   1.28130562  -4.10955401
H   -1.03183461   1.98664024  -4.83792857
H   -1.25519204   2.01640327  -3.06589168
O   -1.45810030   1.77443952   2.74747185
H   -1.14476153   1.26428981   1.98590152
C   -0.95949572   3.09593512   2.61489495
H   -1.32179036   3.65674582   3.48075820
H   -1.32415695   3.59879215   1.70553566
H    0.14097966   3.13746985   2.61737204
O   -2.39288406  -2.27292785   0.30069035
H   -2.52466617  -2.14721113  -0.65075700
C   -1.76168447  -3.52990714   0.48541701
H   -1.62076162  -3.65542838   1.56238979
H   -0.77313504  -3.58430618   0.00314313
H   -2.37288449  -4.37032997   0.12086067
O   -0.63444166  -0.11659508   0.81023886
H   -1.18169633  -0.91577138   0.79433790
C   -0.52146388   0.35431092  -0.52318431
H    0.09789909   1.25462454  -0.48698897
H   -1.49419962   0.62654575  -0.96187635
H   -0.03031509  -0.37133950  -1.19025376
O    0.24887036  -2.50338125   3.39738854
H   -0.43043345  -1.86019706   3.64895108
C    0.39307830  -3.41929877   4.47108912
H    1.16183564  -4.13656891   4.17105430
H   -0.53237579  -3.97833310   4.68035613
H    0.72398350  -2.93389330   5.40257213
O    4.59992067  -1.34128083  -1.23342089
H    3.73291443  -1.71489207  -1.45053401
C    4.39775542  -0.30968786  -0.28080400
H    5.38419099   0.10015680  -0.04744286
H    3.95060349  -0.67756536   0.65594497
H    3.77062581   0.50897747  -0.66716246
O    1.66350222  -2.87431943   1.00205189
H    1.15808771  -2.72320807   1.81454485
C    2.92388681  -3.40980529   1.37248320
H    3.48015709  -3.57396175   0.44560606
H    2.83867790  -4.37542522   1.89506806
H    3.50853984  -2.72309054   2.00444920
O    1.88947895   0.22093746  -3.19249237
H    1.95642311  -0.58553628  -2.66000590
C    3.07080634   0.32166433  -3.97150038
H    2.97876946   1.23529742  -4.56503975
H    3.19641312  -0.52465942  -4.66485195
H    3.98026020   0.40457249  -3.35603533
O    1.89243734  -2.17986188  -1.68869517
H    1.74568917  -2.41831600  -0.76131829
C    0.99001626  -2.93980649  -2.47651123
H    1.16879942  -2.65891592  -3.51796323
H   -0.06427576  -2.72551409  -2.24129977
H    1.15336313  -4.02483967  -2.38271289
