90
Energy:   -539.27047660
O   -3.11453397   2.02688747  -1.28032294
H   -2.42734499   2.58284408  -0.88395591
C   -3.65769085   1.21488042  -0.25165442
H   -4.42996284   0.59516172  -0.71536760
H   -4.12879849   1.80375208   0.55088225
H   -2.90961154   0.54578123   0.20162357
O    1.31160454   3.30862537   1.25558637
H    1.50095151   2.52634368   1.79466555
C    2.31846724   3.39950735   0.26034683
H    2.08993060   4.28582679  -0.33772847
H    2.33131645   2.52772131  -0.41240968
H    3.32653696   3.52520522   0.68552070
O    1.66672340   0.80491695   2.49248484
H    1.18294605   0.25339006   1.85987056
C    1.76886786   0.07853136   3.70676004
H    2.31635858   0.71416939   4.40797571
H    2.32713768  -0.86387889   3.59285195
H    0.78672651  -0.15068415   4.14906758
O   -1.25055273  -1.17534839  -3.64434183
H   -0.75043930  -0.36042189  -3.79992020
C   -2.62871176  -0.83907108  -3.63298244
H   -3.17736407  -1.76824426  -3.45662186
H   -2.97130779  -0.41683533  -4.59064744
H   -2.88731219  -0.13209977  -2.82918227
O   -1.08964360   3.65640488  -0.15819956
H   -0.25858925   3.59786169   0.33611273
C   -1.45659136   5.02524591  -0.22267699
H   -2.39448838   5.07303078  -0.78263322
H   -0.71178115   5.64072833  -0.75108639
H   -1.62964898   5.46638923   0.77141605
O   -3.95170061  -1.22614976   2.27726747
H   -3.25422356  -0.59514691   2.50918217
C   -5.13514458  -0.82585640   2.94939794
H   -5.91037166  -1.54722608   2.67712242
H   -5.47870104   0.17540366   2.64571293
H   -5.02678937  -0.83848979   4.04524322
O    0.38779724   1.09253246  -3.83369317
H    1.27100348   1.16225226  -3.44189071
C   -0.31486785   2.28598019  -3.52632034
H   -1.30736430   2.19062913  -3.97503427
H    0.16556562   3.18285427  -3.94772026
H   -0.44306184   2.43697676  -2.44301814
O   -1.83705492   0.55918915   2.76197891
H   -1.18995636   0.30122665   2.08882062
C   -1.66126411   1.94303171   3.02007024
H   -2.39783897   2.21686839   3.78030451
H   -1.84015724   2.56753727   2.13081921
H   -0.66023085   2.17828925   3.41423217
O   -0.71714170  -3.23029871   0.08302837
H   -0.30280030  -3.31007784  -0.78896921
C   -2.11853296  -3.13081526  -0.11379476
H   -2.56955421  -3.04165437   0.87823113
H   -2.54346861  -4.02113008  -0.60322970
H   -2.40371132  -2.24290436  -0.69951215
O   -0.14547477  -0.51099121   0.76200067
H   -0.29852758  -1.44880366   0.57357055
C    0.01053468   0.15759638  -0.47944424
H    0.18206043   1.21251160  -0.24875401
H   -0.88601736   0.08857673  -1.11521783
H    0.87401469  -0.21071786  -1.05522565
O    0.18860316  -3.17199044   2.74361395
H   -0.23693787  -3.33679226   1.88910914
C   -0.83425447  -2.90273101   3.68902148
H   -0.33752032  -2.71941703   4.64564908
H   -1.52574775  -3.74972838   3.82020773
H   -1.42442221  -2.00862781   3.43395511
O    3.59010501  -0.50001594  -0.34013597
H    3.20306724  -1.18291382   0.22755719
C    4.53388948   0.22078943   0.43590803
H    4.96016303   0.98577416  -0.21874793
H    5.35694856  -0.41319846   0.80116195
H    4.07582038   0.72740164   1.29979118
O    2.56830311  -2.52340591   1.33538158
H    1.82145186  -2.68684467   1.93029691
C    2.88391901  -3.74882178   0.69407328
H    3.72698023  -3.54670436   0.02782895
H    2.05250047  -4.13633493   0.08468498
H    3.18995626  -4.53356527   1.40350699
O    2.90371966   1.04427834  -2.56952915
H    3.16946981   0.52414208  -1.79670420
C    3.86959358   0.82905679  -3.58604330
H    3.55492992   1.42212033  -4.44903092
H    3.92930124  -0.22492820  -3.89961618
H    4.87744482   1.16183152  -3.29231860
O    0.43234428  -3.07381763  -2.46550685
H   -0.18452622  -2.50700918  -2.95194519
C    1.74862424  -2.68290145  -2.82205330
H    2.43058862  -3.33131013  -2.26529843
H    1.97087708  -1.63934188  -2.54935488
H    1.95459359  -2.81280889  -3.89605424
