90
Energy:   -538.28582476
O   -3.26269268   2.04113404  -0.88957555
H   -2.40558383   2.48227791  -0.79376439
C   -3.84152823   1.94014355   0.40165801
H   -4.80610118   1.44100798   0.27537303
H   -4.02363902   2.92288333   0.86408155
H   -3.23340513   1.33751147   1.09433269
O    1.65637646   3.21897995   0.75589748
H    1.81565166   2.45382223   1.32825081
C    2.65502014   3.21809354  -0.25169558
H    2.46071407   4.08623399  -0.88735469
H    2.62016070   2.31723825  -0.88416843
H    3.67255166   3.31586437   0.15799674
O    1.83154085   0.80811777   2.19830443
H    1.11272505   0.33208572   1.75657984
C    2.07442103   0.16551758   3.43951673
H    2.88666424   0.71436035   3.92378709
H    2.39333366  -0.88185998   3.32089001
H    1.20011801   0.18886747   4.10871501
O   -4.09514681  -0.59341435  -1.59043398
H   -3.88749906   0.34284213  -1.45357827
C   -3.46439411  -1.00281764  -2.79337777
H   -3.70857361  -2.05949629  -2.93227271
H   -2.36796641  -0.90836983  -2.75210746
H   -3.82790411  -0.44987169  -3.67365533
O   -0.82739254   3.44004675  -0.55888219
H    0.03338178   3.37466414  -0.11931882
C   -1.07098693   4.81177000  -0.82640949
H   -2.04428293   4.86727546  -1.32148448
H   -0.31982649   5.25363989  -1.49967492
H   -1.11847962   5.42170797   0.08928557
O   -1.45936159  -0.90143187   4.32093706
H   -1.48718619   0.02070233   4.02544156
C   -2.76606541  -1.43668750   4.18470083
H   -2.71670560  -2.47562989   4.52181732
H   -3.12072065  -1.43256731   3.14211749
H   -3.50785174  -0.91101409   4.80614900
O   -0.19608774   0.40568070  -3.86236923
H    0.71422757   0.61494371  -3.60554572
C   -0.93288599   1.61797688  -3.86210383
H   -1.95567497   1.36404705  -4.15349282
H   -0.54417180   2.35200334  -4.58521085
H   -0.96881219   2.09354369  -2.86946953
O   -1.42661513   1.59392814   3.01338933
H   -1.07342480   1.18247364   2.21065335
C   -0.91718739   2.91630968   3.07914812
H   -1.32484395   3.36513125   3.98901653
H   -1.22953836   3.53537610   2.22359510
H    0.18160685   2.94585249   3.14664452
O   -2.76077658  -1.83412757   0.56346012
H   -3.32740826  -1.49936475  -0.14737437
C   -2.20226793  -3.06271917   0.12623645
H   -1.56698620  -3.42580528   0.93868387
H   -1.57577983  -2.94916980  -0.77231602
H   -2.96677007  -3.82869436  -0.07771409
O   -0.53473926  -0.12070866   0.92485758
H   -1.23465203  -0.79044066   0.92274992
C   -0.10630280   0.05834651  -0.41563308
H    0.68196718   0.81576947  -0.39499105
H   -0.91090329   0.42086827  -1.07439963
H    0.31428445  -0.86022508  -0.85393655
O    0.22337351  -2.71667156   2.96726150
H   -0.39460837  -2.10629390   3.39616799
C    0.59991992  -3.69221101   3.92594256
H    1.29593969  -4.37144796   3.42626382
H   -0.25482141  -4.28481749   4.28789860
H    1.11418070  -3.25633184   4.79675971
O    3.37808955  -0.71457967  -0.79869188
H    2.92269054  -1.34205127  -0.21790413
C    4.45055538  -0.14765772  -0.06319862
H    4.95263786   0.55653688  -0.73215926
H    5.18910957  -0.89842128   0.25877827
H    4.11040799   0.40816542   0.82457259
O    2.08252779  -2.58300874   0.85978818
H    1.41857515  -2.57151976   1.56509532
C    1.71121363  -3.59315338  -0.06447768
H    2.46957275  -3.59243539  -0.85211728
H    0.73275665  -3.40246504  -0.53249182
H    1.69016117  -4.59684041   0.38823246
O    2.44833380   0.72315808  -3.00135390
H    2.79421765   0.23680623  -2.23830114
C    3.43271786   0.67932496  -4.02194218
H    3.02688453   1.23172413  -4.87378705
H    3.65470562  -0.34667077  -4.35485588
H    4.37743724   1.15952076  -3.72245158
O   -0.11034478  -2.34985919  -3.12638365
H   -0.25128908  -1.43295410  -3.40538728
C    1.17604069  -2.74381382  -3.57643469
H    1.31843840  -3.77874720  -3.25375687
H    1.98390210  -2.13589225  -3.13989300
H    1.27105102  -2.71201604  -4.67312940
