90
Energy:   -540.04993482
O   -0.39497767  -1.30087785  -3.81154393
H    0.45218318  -0.85249326  -3.67121214
C   -0.25229775  -2.63998023  -3.36547102
H   -1.21540738  -3.13047409  -3.53076115
H   -0.01444852  -2.70765811  -2.29233321
H    0.51473900  -3.19584283  -3.92711924
O    0.02129545   3.85644286  -0.00952184
H    0.58978866   3.96291811   0.76758933
C   -1.31946839   3.77214195   0.44630648
H   -1.94621179   3.65248561  -0.44159007
H   -1.64672937   4.68094624   0.97522266
H   -1.49115650   2.90613616   1.10458796
O    1.78172939   3.83610255   2.17683379
H    2.25470225   3.01628876   1.97037485
C    2.51618394   4.51507937   3.18286598
H    1.96956146   5.43597489   3.40341191
H    3.53103166   4.79049159   2.85574284
H    2.59717899   3.93455467   4.11517934
O   -3.23686176   0.68661179   1.73920539
H   -3.43267764   1.07930061   0.87556490
C   -3.87908818  -0.57718705   1.79297810
H   -3.64817660  -1.00551516   2.77211040
H   -3.51398033  -1.27289732   1.02131702
H   -4.97407787  -0.50191605   1.70292703
O    1.84655628  -3.06268907  -0.13995811
H    1.29658144  -2.32360564   0.15955254
C    2.85844868  -2.53290066  -0.98134493
H    3.46865918  -3.37865888  -1.30970659
H    3.51570118  -1.82013178  -0.45908350
H    2.45095479  -2.03794086  -1.87674476
O   -1.88046178  -3.16570310   0.02333194
H   -1.20721252  -2.49168974   0.19901547
C   -1.23683305  -4.42989114   0.03355051
H   -2.00944742  -5.17739758  -0.16591465
H   -0.77717823  -4.66520034   1.00623976
H   -0.46481400  -4.52033628  -0.74656717
O   -0.88812593   0.01982785   3.15404034
H   -1.74310887   0.30784514   2.80123234
C   -0.07039032   1.17063000   3.29367079
H    0.88851802   0.82818481   3.69205665
H   -0.48907605   1.90695746   3.99744736
H    0.11963653   1.67625329   2.33397697
O   -3.68076224   1.54951122  -0.91331932
H   -3.42057176   0.93103905  -1.61204413
C   -4.62349912   2.45319501  -1.46751835
H   -4.90586924   3.14259410  -0.66721765
H   -5.53652903   1.95033333  -1.82288274
H   -4.20761830   3.04560703  -2.29749936
O    2.96009467   1.40142204   1.51354217
H    3.10183968   0.53883160   1.93099798
C    3.19391965   1.25003527   0.12252036
H    3.02991588   2.23076945  -0.33217561
H    2.50222625   0.53488641  -0.34960217
H    4.22522887   0.93700692  -0.10373592
O    0.59363697   2.51278407  -2.39842266
H    0.43150416   3.04882935  -1.60798501
C   -0.61149994   2.47247222  -3.14578721
H   -0.41114030   1.86483781  -4.03242221
H   -0.93714589   3.46943570  -3.48163818
H   -1.44017812   2.00469195  -2.59148457
O    3.16798280  -1.07348940   2.81296346
H    2.42790177  -1.42724063   3.32829191
C    4.08077548  -2.13543178   2.58575942
H    4.90802485  -1.71961637   2.00417432
H    3.63743066  -2.96072975   2.00687604
H    4.49358884  -2.54843742   3.51945574
O   -2.87148403  -0.30181235  -2.86282912
H   -2.05577916  -0.65258162  -3.25014006
C   -3.73608695  -1.39862917  -2.61385435
H   -4.64979329  -0.98572220  -2.17781105
H   -3.31217745  -2.12034212  -1.89816693
H   -4.01080474  -1.94057693  -3.53233140
O   -0.00343252  -1.08126571   0.67924515
H   -0.21571195  -0.72090293   1.55302967
C   -0.36199258  -0.10648298  -0.28707109
H   -0.11626399  -0.52861301  -1.26528829
H    0.19873790   0.83414586  -0.17055481
H   -1.43818145   0.12693624  -0.27656754
O    0.85158750  -1.99966015   4.13616123
H    0.16944280  -1.34362617   3.92946991
C    0.47491165  -3.22091601   3.52038270
H    1.25398400  -3.94860803   3.76327320
H    0.41113234  -3.14228872   2.42378465
H   -0.48427428  -3.60908589   3.89729628
O    1.92390834   0.19404097  -3.18325346
H    1.52220925   1.02738174  -2.89584386
C    2.92313041   0.50561802  -4.14085921
H    3.36528356  -0.44411121  -4.45390901
H    3.72595234   1.13627916  -3.72791755
H    2.51520353   1.00329935  -5.03455171
