90
Energy:   -535.17735182
O   -3.31332980   2.63251727  -0.86021654
H   -2.36753169   2.83947939  -0.82772226
C   -3.46235525   1.25270866  -0.56618700
H   -4.53340463   1.03668078  -0.60705739
H   -3.09940902   0.99071434   0.43999705
H   -2.95523582   0.60475457  -1.29814514
O    2.09401607   2.75122781  -0.03631670
H    2.65874365   1.96621724   0.02081856
C    2.32557932   3.53343987   1.12431095
H    1.68170112   4.41344300   1.04368484
H    3.36815264   3.87931768   1.20296681
H    2.06432291   3.00326343   2.05352318
O    2.91321107   0.51513641   3.17531353
H    2.06742779   0.88712762   3.46634010
C    3.92128186   1.00653924   4.04413476
H    4.86716108   0.57779710   3.70211448
H    3.76660893   0.70095219   5.09078187
H    4.01240112   2.10356253   4.01228311
O   -3.46129210  -1.54584196  -2.94478167
H   -2.82888808  -0.97042429  -3.40017483
C   -4.76231942  -1.18571761  -3.38086899
H   -5.46211541  -1.84347486  -2.85825424
H   -4.90276254  -1.32916309  -4.46367851
H   -5.02135194  -0.14474173  -3.13177320
O   -0.54967337   3.33522527  -0.69989083
H    0.37955660   3.10287910  -0.55507993
C   -0.58055948   4.54949032  -1.43278932
H   -1.63441953   4.79657216  -1.58710968
H   -0.10218046   4.46209425  -2.42086461
H   -0.10975500   5.38500710  -0.89146485
O    0.46591688   1.69072916   3.87263754
H   -0.09598711   2.25229569   3.31826382
C   -0.34991660   0.66166085   4.40926397
H    0.29871284   0.03853256   5.03093605
H   -0.79413034   0.02169860   3.63086830
H   -1.16126776   1.04999116   5.04462700
O   -1.58384989   0.21841654  -4.03157762
H   -0.61925116   0.13221149  -4.05484260
C   -1.89068891   1.60139268  -3.95567915
H   -2.98092036   1.68036954  -3.93031665
H   -1.52772940   2.16604065  -4.82872576
H   -1.49276395   2.07590863  -3.04503779
O   -1.08992790   3.23210534   2.10181098
H   -0.98569406   3.31969169   1.14270347
C   -2.40870023   3.63882598   2.43037091
H   -2.50900624   3.53391526   3.51407643
H   -3.17830358   3.01149863   1.95397988
H   -2.60691629   4.69019158   2.16937646
O   -2.93526014  -2.05181611  -0.24853996
H   -3.18102417  -1.92410698  -1.17682531
C   -3.26198479  -3.38667913   0.10349058
H   -2.97869885  -3.51340053   1.15190651
H   -2.70976442  -4.13072717  -0.49167537
H   -4.33877428  -3.59897605   0.01276167
O   -0.72423633  -1.26479385   1.28880874
H   -1.52556093  -1.46665197   0.78328381
C   -0.09728205  -0.15017249   0.67473925
H    0.80334438   0.06367505   1.25665545
H   -0.73025640   0.75097735   0.68179588
H    0.20747800  -0.35261625  -0.36396916
O    1.11200769  -3.31994082   1.81618433
H    0.47276850  -2.60318902   1.68944288
C    1.95814729  -2.95624231   2.89521396
H    2.67189157  -3.77440231   3.02432062
H    1.40958794  -2.82922859   3.84164276
H    2.52748045  -2.03460047   2.69719023
O    3.54993256   0.39507906   0.44238853
H    3.41900287   0.33256770   1.40018445
C    3.54247136  -0.92383714  -0.08004631
H    3.69112242  -0.83495635  -1.15962413
H    2.58688221  -1.44370290   0.09131972
H    4.35467086  -1.54676081   0.32624840
O    2.57606603  -4.22211846  -0.38966243
H    2.11032466  -3.98758076   0.42673227
C    2.64454931  -5.63761007  -0.45468024
H    3.17203516  -5.88443866  -1.38005558
H    1.65053098  -6.11017821  -0.49188556
H    3.20611589  -6.07521846   0.38550974
O    1.19235076  -0.09722294  -3.74551533
H    1.34539829  -0.94797771  -3.30823275
C    1.81781953   0.90747365  -2.96327025
H    1.63565997   1.85903934  -3.47005012
H    2.90706153   0.76682039  -2.88236387
H    1.39992459   0.97660413  -1.94672604
O    1.35963905  -2.50737727  -2.28616340
H    1.87337532  -3.12670577  -1.74678364
C   -0.00870427  -2.86026918  -2.16111284
H   -0.57294634  -2.15279029  -2.77478188
H   -0.37515326  -2.78188376  -1.12557037
H   -0.22114946  -3.87632365  -2.52891398
