90
Energy:   -539.11729431
O   -4.25395091  -0.33539077  -2.23637809
H   -4.04828730   0.10387223  -1.39782352
C   -3.28811480  -1.35504692  -2.43636740
H   -3.53460531  -1.83954090  -3.38504712
H   -3.30912726  -2.12160594  -1.64597315
H   -2.26258233  -0.96068238  -2.51077910
O    2.06670563   0.31208910   2.83844363
H    1.67045870   1.09455387   2.42715233
C    1.00930172  -0.51978052   3.28835881
H    1.47326986  -1.39621916   3.74887382
H    0.36296857  -0.86747232   2.46729778
H    0.37647623  -0.03101802   4.04560411
O   -2.10213514  -2.17270406   2.67997568
H   -1.43832011  -2.81757756   2.96617673
C   -2.64355450  -2.62902124   1.45067771
H   -3.38933065  -1.89115151   1.14269817
H   -3.14639158  -3.60437947   1.54345979
H   -1.88683699  -2.70259276   0.65397000
O   -0.03321910  -1.52166693  -1.13628845
H    0.65242741  -1.39838199  -1.80942511
C   -0.15748929  -0.30329132  -0.42029154
H   -0.93371435  -0.45975541   0.33368382
H   -0.46833764   0.53669310  -1.06105422
H    0.77084339  -0.01887545   0.09940392
O   -2.56426440   0.57793142   2.68729814
H   -2.37742906  -0.37139259   2.73525386
C   -3.57841812   0.86551526   3.63667770
H   -3.77658905   1.93867856   3.56934260
H   -3.27048899   0.63937306   4.66954588
H   -4.51874853   0.33106350   3.42951263
O    1.08348436  -3.44295866   0.60969405
H    0.62391014  -2.85116787  -0.00430797
C    2.42161640  -2.98668810   0.72696980
H    2.92481893  -3.66433090   1.42200408
H    2.48870542  -1.96644051   1.13608009
H    2.96554165  -3.01370768  -0.23020970
O   -3.42920868   1.57733097  -4.12479771
H   -3.78619348   0.87245841  -3.56431596
C   -4.52559856   2.23712871  -4.73727622
H   -4.10564541   3.02787597  -5.36484561
H   -5.20274324   2.70526823  -4.00577243
H   -5.11828364   1.56874179  -5.38129537
O    0.05977743  -3.91221269   3.16909943
H    0.46513792  -3.84758091   2.29164352
C    0.92979031  -4.67488603   3.99003837
H    0.45803347  -4.73783183   4.97440036
H    1.91787742  -4.20479846   4.11445246
H    1.07736490  -5.70012085   3.61601612
O    3.94976686  -0.12868285  -0.88253478
H    4.28182885  -0.31000709   0.00924974
C    3.54857515   1.23140760  -0.92416360
H    3.17728832   1.41861585  -1.93539273
H    4.38097243   1.92636968  -0.73201834
H    2.73670748   1.45717331  -0.21516567
O    4.56761711  -0.47789316   1.85999584
H    3.73230293  -0.24925619   2.29404495
C    5.62032248   0.07338796   2.63487282
H    6.55371604  -0.19352337   2.13186188
H    5.65463074  -0.33473251   3.65714380
H    5.56989442   1.17152662   2.70064377
O   -3.46693142   1.07690127   0.06640045
H   -3.16016615   0.97420008   0.97951097
C   -2.98316713   2.32144485  -0.41278338
H   -3.33780159   2.42102257  -1.44225115
H   -1.88323156   2.37429480  -0.42400665
H   -3.36630262   3.17739437   0.16456829
O    0.97920770   2.53019871   1.49976437
H    0.84431665   2.80611525   0.58101645
C   -0.10431645   3.03444945   2.26412055
H    0.06347964   2.71453625   3.29610176
H   -1.07736372   2.63573223   1.93704118
H   -0.15769854   4.13435065   2.25207753
O   -0.77851581   2.15925675  -3.38545828
H   -1.68443381   2.02760544  -3.70232386
C    0.03264009   1.15323348  -3.97067368
H    1.04942761   1.31629867  -3.60319841
H    0.05379307   1.21027769  -5.07025353
H   -0.27595739   0.13645684  -3.68134658
O    0.60429108   3.20280313  -1.19339390
H    0.13530804   2.85453223  -1.96617172
C    1.27386241   4.38755190  -1.59411619
H    1.79684238   4.76656084  -0.71188641
H    0.58175831   5.16987992  -1.94301749
H    2.02106049   4.20767575  -2.38286008
O    2.20232370  -1.19497220  -2.80511259
H    2.87573493  -0.83230204  -2.21062882
C    2.74111708  -2.36235838  -3.40464990
H    1.96974627  -2.75794075  -4.07097329
H    2.98918318  -3.14278525  -2.66832494
H    3.63926930  -2.15510293  -4.00726511
