90
Energy:   -541.67656859
O   -3.20830442   2.76700922   0.17769442
H   -2.31011994   3.07979705  -0.00629386
C   -3.21055810   2.20717755   1.48119631
H   -4.22958456   1.85991856   1.67219757
H   -2.94838753   2.94081916   2.25953679
H   -2.53271429   1.34428340   1.57457078
O    2.15585065   3.28687839  -0.46925839
H    2.72100697   2.52276366  -0.65674250
C    2.93577789   4.23499070   0.24160750
H    2.28394729   5.08902721   0.44464376
H    3.79984694   4.59530138  -0.33833925
H    3.30135742   3.84779400   1.20556167
O    2.51311799  -0.25886702   1.40797185
H    1.57990239  -0.49677923   1.30342668
C    2.88047297  -0.53684288   2.74972947
H    3.93427400  -0.26312913   2.85007576
H    2.77874916  -1.60295396   3.00631622
H    2.30364836   0.05274874   3.47940914
O   -3.49054724  -1.18320383  -1.67255140
H   -3.10589268  -0.61219333  -2.35402859
C   -4.63254050  -0.52224707  -1.15147431
H   -5.05341153  -1.17909988  -0.38538217
H   -5.40739144  -0.34704053  -1.91415775
H   -4.38706775   0.44116338  -0.67780696
O   -0.61154165   3.72381979  -0.47760300
H    0.34713501   3.58467160  -0.47726632
C   -0.87498077   4.90356127  -1.22012818
H   -1.95908408   5.04537311  -1.21040071
H   -0.55012054   4.82692637  -2.26959007
H   -0.40971920   5.79784873  -0.77677851
O   -0.35426247  -1.36947133   4.19289687
H   -0.27335560  -0.41611538   4.04127304
C   -1.73229236  -1.70018697   4.12813142
H   -1.80532539  -2.77733756   4.30104173
H   -2.17631684  -1.48147616   3.14437069
H   -2.32894767  -1.18930419   4.89999835
O   -2.22965196   0.54274279  -3.49393286
H   -1.31356454   0.54893134  -3.80884368
C   -2.58138035   1.87759250  -3.16682863
H   -3.61596093   1.85239719  -2.81399239
H   -2.53279731   2.55480066  -4.03389617
H   -1.95661275   2.29712634  -2.36281735
O   -0.19353442   1.26490594   3.11947235
H   -0.26249371   0.76513615   2.29249106
C    0.42044663   2.50846754   2.82095001
H    0.49032674   3.05856250   3.76328621
H   -0.16816689   3.11463861   2.11464406
H    1.43822348   2.39391943   2.41624476
O   -2.40275129  -2.36554321   0.61507158
H   -2.83828634  -2.00982311  -0.17372225
C   -1.97319819  -3.68323967   0.31226151
H   -1.48489961  -4.06889020   1.21132956
H   -1.24373247  -3.71379645  -0.51219188
H   -2.80853308  -4.35590980   0.06224579
O   -0.31464825  -0.48378374   0.93145333
H   -0.94577347  -1.21642324   0.87362941
C   -0.38402472   0.24118895  -0.28597645
H    0.33297837   1.06255250  -0.20379565
H   -1.38021336   0.67445123  -0.46672302
H   -0.10631120  -0.36820540  -1.16021387
O    0.78238725  -3.27901269   2.43815107
H    0.36719651  -2.63080504   3.02625545
C    0.99587440  -4.46487882   3.18693578
H    1.46403257  -5.18417312   2.50949291
H    0.05863682  -4.90698201   3.55963918
H    1.67210213  -4.31162013   4.04250878
O    3.66413107   0.94256096  -0.81458927
H    3.34455554   0.48598607  -0.02222942
C    4.08443615  -0.04617032  -1.74102754
H    4.44129593   0.48530942  -2.62740533
H    3.26566810  -0.71454877  -2.05032748
H    4.91137919  -0.66412258  -1.35752064
O    1.51678283  -3.16873285  -0.29321448
H    1.21897427  -3.16648798   0.62859261
C    2.91921373  -3.38255455  -0.29194078
H    3.23800565  -3.38219035  -1.33781687
H    3.20135627  -4.35070951   0.15060739
H    3.47023311  -2.58668668   0.23317761
O    0.51691770   0.47183888  -4.06712298
H    0.82876663  -0.37145050  -3.70651717
C    1.33483330   1.49868618  -3.52941259
H    0.96988159   2.44148024  -3.94586763
H    2.39419809   1.38908490  -3.80961098
H    1.27052103   1.56268486  -2.43189474
O    0.98592792  -2.06227991  -2.83570131
H    1.18325796  -2.43283175  -1.96267470
C   -0.24563522  -2.61640598  -3.27013234
H   -0.45275315  -2.18844293  -4.25473124
H   -1.08487730  -2.36210831  -2.60396211
H   -0.20536089  -3.71186038  -3.37565466
