90
Energy:   -535.31454190
O   -3.43648713   0.23497152   3.72851251
H   -3.08229511  -0.63425776   3.48890500
C   -2.61621741   0.76531071   4.75731360
H   -3.02924257   1.74429547   5.01515906
H   -1.57225545   0.90873908   4.43739321
H   -2.61880225   0.14355041   5.66626067
O    0.07217528   2.77541634   2.49037756
H   -0.06243277   1.82752231   2.34272641
C   -1.17525906   3.42263025   2.29658519
H   -1.00555242   4.48927477   2.46674489
H   -1.94573393   3.08211511   3.00594775
H   -1.56479217   3.29778260   1.27411057
O    3.79608105   0.82709827   0.58514246
H    3.33607719   1.49124363   0.05060467
C    3.76705591   1.26496874   1.93420168
H    4.28935970   0.50548479   2.52230720
H    2.74326488   1.35815226   2.32910179
H    4.28477065   2.22585731   2.08063234
O   -2.34154957   0.72772823  -1.11231538
H   -2.84234734   1.00323612  -0.33018990
C   -1.31731000   1.68552771  -1.32699479
H   -0.76306264   1.35990310  -2.21145150
H   -0.61031548   1.74806452  -0.48495843
H   -1.71289312   2.69418707  -1.52421961
O   -3.76142110   1.43740759   1.20548833
H   -3.64768302   1.09538743   2.10465969
C   -5.08265769   1.94339683   1.10136090
H   -5.19371341   2.32455514   0.08260176
H   -5.27656193   2.77293491   1.79924704
H   -5.84861924   1.16848129   1.26131755
O   -2.19036994  -2.08355624   2.70181618
H   -1.54667550  -2.79247388   2.84850126
C   -2.80871797  -2.31659414   1.44647844
H   -3.53061843  -1.50910151   1.29714468
H   -3.35404864  -3.27273499   1.41203320
H   -2.09343806  -2.29417539   0.60943042
O    0.02872906   0.77873366  -4.97122457
H    0.40317741  -0.01837514  -4.56770348
C   -1.36835318   0.57523689  -5.11009154
H   -1.77417147   1.48238676  -5.56602558
H   -1.87407379   0.42324918  -4.14369424
H   -1.61105983  -0.27484854  -5.76676921
O   -0.37364927   0.03100241   2.05845062
H   -0.99761173  -0.67205621   2.29255037
C    0.48773986  -0.47567576   1.05156444
H    1.18394392   0.32889499   0.79966957
H   -0.05137102  -0.76023994   0.13441668
H    1.07609924  -1.34218834   1.39180922
O   -1.43017812  -1.75739918  -1.97674995
H   -1.78672533  -0.90727589  -1.67911302
C   -2.48756863  -2.47612442  -2.59148007
H   -2.06864295  -3.43086715  -2.92080179
H   -2.89578980  -1.95975579  -3.47437092
H   -3.31686519  -2.68806232  -1.89856819
O    2.28740322   2.61782335  -0.98237581
H    1.95529282   2.73744160  -1.88449412
C    1.84678458   3.72407522  -0.21127543
H    2.22958756   3.57329783   0.80174641
H    0.74912395   3.79277981  -0.15472338
H    2.23630737   4.68434771  -0.58400332
O   -0.01669241  -3.82660465   2.89124647
H    0.57835745  -4.01236056   2.14973876
C    0.76853069  -3.31192309   3.95476014
H    0.08271154  -3.10817656   4.78157612
H    1.27563246  -2.37035982   3.69192229
H    1.52674995  -4.02790232   4.30867346
O    1.25493521   2.87622953  -3.57718742
H    0.77593543   2.23398166  -4.12170570
C    2.27728619   3.44391137  -4.38034965
H    2.80682781   4.16486041  -3.75161810
H    1.88098586   3.98110168  -5.25622061
H    3.00631325   2.69690658  -4.73146321
O    3.68331736  -1.96908039   0.47546661
H    3.76735273  -1.00693934   0.55060593
C    4.86360994  -2.45732987  -0.14183043
H    4.75219591  -3.54230301  -0.21867711
H    5.76975231  -2.24813242   0.44801681
H    5.00960524  -2.05638891  -1.15706885
O    0.96865165  -1.34838103  -3.37501999
H    0.19683865  -1.61538694  -2.85402498
C    1.88376146  -0.71517131  -2.49516020
H    2.74698157  -0.42085437  -3.09824708
H    2.23805280  -1.38494223  -1.69599696
H    1.46755638   0.19179233  -2.02936237
O    1.74268314  -3.98755253   0.70542824
H    2.45587477  -3.33897074   0.60991580
C    1.03916945  -4.03810186  -0.52544423
H    0.23957878  -4.77327795  -0.40031998
H    1.67360180  -4.36326650  -1.36481357
H    0.57800261  -3.07410744  -0.79155930
