90
Energy:   -539.89113353
O   -1.63252395   2.71846278   2.21475491
H   -1.87642187   1.78930615   2.33967501
C   -1.21780512   3.22742884   3.47233020
H   -0.94673115   4.27469663   3.31347721
H   -0.33597323   2.70357570   3.87323884
H   -2.01666752   3.19265222   4.22955327
O   -2.48811148   0.08437238   2.84064992
H   -2.27595323  -0.79554980   2.49547011
C   -3.89943989   0.22652641   2.81878418
H   -4.12093402   1.22292819   3.21071407
H   -4.41115280  -0.51221306   3.45533052
H   -4.31797076   0.15866679   1.80241598
O    0.35104743  -2.42825292  -2.92163239
H   -0.57947803  -2.16280439  -2.87599548
C    0.48296843  -3.65650707  -2.22412084
H    1.53692271  -3.94095554  -2.28539590
H   -0.11556067  -4.46572606  -2.67100435
H    0.21347685  -3.57212271  -1.15968160
O   -1.95327201  -2.54867869   1.90954210
H   -1.14940469  -3.07700491   1.79512177
C   -2.84721153  -2.89301881   0.86319809
H   -3.74708787  -2.28890521   1.00726241
H   -3.14098232  -3.95411141   0.88683128
H   -2.44062311  -2.66718358  -0.13503117
O   -2.89743031   0.35404461  -0.62327089
H   -2.04307559   0.44232059  -0.17526571
C   -3.39885953   1.66068472  -0.85520649
H   -4.36136160   1.54273918  -1.36034390
H   -2.74245355   2.25864104  -1.50663320
H   -3.56891881   2.22250854   0.07657201
O    2.87774922  -2.62949575   1.63526110
H    2.77679449  -1.88406615   2.24564306
C    3.71428983  -2.20436096   0.57130903
H    3.81744100  -3.05589451  -0.10672906
H    4.72092295  -1.91491489   0.91143850
H    3.28504681  -1.36490059   0.00224484
O   -2.29297180  -1.50257479  -2.63946746
H   -2.59874984  -0.88633803  -1.95742983
C   -2.85557092  -1.09090233  -3.87500045
H   -2.50098321  -1.79567370  -4.63200116
H   -2.53482994  -0.08028348  -4.17257750
H   -3.95646594  -1.11908454  -3.87135902
O   -0.07131549   2.92614125  -2.87942261
H   -0.26554774   3.20207303  -1.97137043
C    0.02951187   1.51111141  -2.88705014
H    0.24851005   1.21731186  -3.91719907
H   -0.90611332   1.01647814  -2.58254931
H    0.84381287   1.13935201  -2.24557826
O    0.43762073  -4.00193689   1.51569222
H    1.31944667  -3.60141281   1.49602640
C    0.44000450  -4.99865952   2.52518323
H   -0.56052511  -5.43951355   2.53375139
H    0.64092204  -4.58849999   3.52727038
H    1.16573512  -5.80290479   2.32698652
O    2.21863743   1.71941060   1.25934015
H    2.73813160   1.56694084   0.45603320
C    2.19849492   3.11733444   1.50004116
H    1.60936436   3.27129004   2.40817555
H    1.72174467   3.68252845   0.68392703
H    3.20354604   3.53402648   1.67038585
O    2.23622938  -0.35280489   3.17437313
H    2.23010044   0.43807397   2.61500175
C    0.96646060  -0.44744813   3.79988387
H    0.99070219  -1.34347050   4.42601602
H    0.14338822  -0.55849866   3.07669858
H    0.74600903   0.41563371   4.44739308
O   -0.75299690   3.78651671  -0.25282646
H   -1.02997050   3.37800459   0.58073622
C   -1.39078868   5.05029921  -0.34561233
H   -1.06785800   5.49658025  -1.29008796
H   -1.10380841   5.73235662   0.46999624
H   -2.48913243   4.97207508  -0.36291341
O    2.72629351  -0.93828163  -2.84127730
H    1.93086600  -1.49034020  -2.87209444
C    3.18328861  -0.76709394  -4.17333737
H    4.07953834  -0.14307313  -4.12023708
H    2.44769405  -0.25434258  -4.81268392
H    3.45803674  -1.71892617  -4.65428042
O   -0.26358267   0.55052021   0.36248087
H    0.45883324   1.07457577   0.73918272
C    0.25526025  -0.73054350   0.04277539
H   -0.57143841  -1.30768189  -0.38026811
H    0.63104116  -1.26977541   0.92640143
H    1.06079025  -0.68809819  -0.70695599
O    3.52703555   1.17178062  -1.15605834
H    3.30439786   0.45000342  -1.76260051
C    3.66083687   2.35552468  -1.92637060
H    3.91161420   3.15831800  -1.22771559
H    2.72980813   2.63283513  -2.44508221
H    4.46768671   2.28817895  -2.67285250
