90
Energy:   -541.27931861
O   -2.57004795   1.74966794  -2.42669335
H   -2.05509115   2.39490492  -1.91982846
C   -3.72231584   1.42508819  -1.66547034
H   -4.29088456   0.69743797  -2.25091031
H   -4.37010292   2.29656348  -1.48194909
H   -3.47566119   0.96511801  -0.69574551
O    1.12180650   3.17758075   0.86229980
H    1.07098561   2.78184412   1.74504156
C    2.25160047   2.62400135   0.20682347
H    2.29387845   3.08053098  -0.78578847
H    2.17611264   1.53292863   0.07783035
H    3.19656757   2.84795453   0.72611094
O    0.65230359   1.76148665   3.25676172
H   -0.29348007   1.55524400   3.21960644
C    1.36071356   0.53244290   3.26861710
H    2.42413053   0.78317392   3.31061111
H    1.18694440  -0.06730451   2.36148719
H    1.12131543  -0.08791451   4.14646820
O   -1.97092804  -0.75657489  -3.58827196
H   -2.18937874   0.12138897  -3.24203213
C   -1.55606771  -0.59697862  -4.93547414
H   -1.31386743  -1.59526687  -5.30996688
H   -0.65675097   0.03128015  -5.03189844
H   -2.34561490  -0.17423413  -5.57631706
O   -1.01213673   3.53276000  -0.90808900
H   -0.26249754   3.45953588  -0.29890710
C   -1.03759129   4.86262981  -1.40137604
H   -1.88776618   4.92760189  -2.08582216
H   -0.12701675   5.12568794  -1.96211819
H   -1.18286873   5.60897252  -0.60473035
O   -1.62811158  -0.47600638   5.06880965
H   -1.93340995   0.12495179   4.37306152
C   -1.23515525   0.31502605   6.17893883
H   -0.89412161  -0.37757561   6.95320248
H   -2.06516435   0.90846655   6.59329446
H   -0.40433720   0.99784698   5.94171681
O    1.68159867   1.09382829  -4.01874885
H    2.38507971   0.89112282  -3.38436080
C    0.80495902   2.02585947  -3.40608697
H    0.01874284   2.24315433  -4.13418880
H    1.30378841   2.97348517  -3.14927558
H    0.32780993   1.62691885  -2.49726771
O   -2.09028090   1.13007362   2.79415780
H   -2.02137361   0.53013258   2.03669769
C   -2.58534179   2.37087981   2.31682304
H   -2.65678200   3.03466403   3.18271680
H   -3.58775637   2.28484435   1.86900584
H   -1.91501577   2.84124605   1.58048347
O   -2.02841440  -3.18178425  -0.46897984
H   -1.34912355  -3.15989606  -1.15927552
C   -3.29308577  -3.10371043  -1.10698030
H   -4.04657333  -3.12960719  -0.31510211
H   -3.48062766  -3.95138895  -1.78451000
H   -3.42615890  -2.16931188  -1.67440273
O   -1.70499835  -0.59540879   0.64781786
H   -1.84981861  -1.50585091   0.35025188
C   -0.58216266  -0.08658179  -0.05422835
H   -0.43314066   0.93945489   0.29294074
H   -0.73877724  -0.05890568  -1.14394539
H    0.33967824  -0.65337681   0.15005112
O   -0.47856958  -2.57688288   3.55893940
H   -0.83119110  -1.92596442   4.18374857
C   -1.57773147  -3.28677010   3.01081801
H   -1.16269105  -4.01562044   2.30938817
H   -2.27066772  -2.63514286   2.45584178
H   -2.15231360  -3.83563844   3.77329834
O    3.36476185  -0.89131983   0.40767212
H    2.78022206  -1.52034834   0.85606885
C    4.53706631  -0.75652462   1.19511501
H    5.18430932  -0.04468018   0.67565454
H    5.08839992  -1.70376385   1.30256926
H    4.33026401  -0.35880248   2.20101125
O    1.65898955  -2.66762181   1.72113723
H    0.92392441  -2.67358324   2.35206272
C    1.45301003  -3.73546647   0.81019596
H    2.28980054  -3.71416412   0.10676647
H    0.52025830  -3.62932827   0.23444756
H    1.44672107  -4.72002934   1.30352521
O    3.60086477   0.39129299  -2.06691986
H    3.55507874  -0.04974561  -1.20563486
C    4.65548169  -0.20853223  -2.80212502
H    4.69307077   0.30002549  -3.76930717
H    4.48863003  -1.28130696  -2.98676582
H    5.63569065  -0.08815340  -2.31480924
O   -0.16288361  -2.62503669  -2.51758286
H   -0.76425021  -2.00921765  -2.96204702
C    1.15820562  -2.13883419  -2.69326488
H    1.82251420  -2.84414636  -2.18659531
H    1.30880716  -1.14484638  -2.24372652
H    1.45601197  -2.08995022  -3.75236783
