90
Energy:   -537.39779014
O    0.89102300  -1.68099317   1.60099661
H    1.57565499  -2.22710122   1.18690929
C   -0.35907317  -2.31164743   1.37281131
H   -1.11881910  -1.68346086   1.84573093
H   -0.41750438  -3.31514832   1.82264360
H   -0.60375171  -2.39590042   0.30238561
O   -1.17639450   2.69687319   3.55432777
H   -0.58956770   1.92615995   3.56198815
C   -2.50539765   2.22757194   3.71569920
H   -3.15310200   3.10839299   3.70481086
H   -2.65807982   1.70335889   4.67208101
H   -2.82283390   1.56029217   2.89915204
O   -0.11860890   1.90587717  -3.27572241
H    0.43223401   1.11073033  -3.32803752
C    0.74830343   3.02394120  -3.17117776
H    0.11152817   3.91087206  -3.11324574
H    1.40794987   3.13384456  -4.04614357
H    1.37434224   2.99342077  -2.26568273
O    1.60770100  -0.29262338  -2.95763691
H    2.23219282   0.12924460  -2.34898211
C    1.24912362  -1.54867285  -2.40419698
H    0.54547319  -2.01021239  -3.10229620
H    0.74942944  -1.45583429  -1.42723021
H    2.11080117  -2.22502344  -2.29088765
O    0.58706564   0.53228871   3.30337806
H    0.67430378  -0.25889454   2.75125322
C    1.81857802   1.23425787   3.24725022
H    1.70283286   2.12235687   3.87444112
H    2.07260375   1.56653143   2.22850465
H    2.66188273   0.64567365   3.64118308
O    2.47371147   3.44157362   0.32144728
H    1.73223941   3.78955981   0.83869776
C    3.48967016   4.43157995   0.30566118
H    4.31709316   4.02328482  -0.28098306
H    3.86882517   4.66788709   1.31222849
H    3.16278692   5.36877653  -0.17139987
O    3.16630922   1.10283198  -1.07439161
H    2.95792927   1.91546690  -0.59000998
C    3.61293695   0.14198733  -0.13108095
H    3.84327869  -0.76692560  -0.69349111
H    2.84578378  -0.10595759   0.61910346
H    4.52636644   0.45729828   0.39712630
O   -2.50315830  -2.03844378  -1.56541054
H   -2.90133264  -1.60214616  -0.79760532
C   -2.43941577  -1.08720605  -2.61594252
H   -1.98852521  -1.59516923  -3.47277173
H   -1.81137505  -0.21806141  -2.36508442
H   -3.43292808  -0.72190639  -2.91969700
O   -0.91636083  -4.31101476  -1.90553488
H   -1.47115350  -3.51990610  -1.83643007
C   -1.77044643  -5.44219771  -1.84640194
H   -1.12936451  -6.32436833  -1.92561158
H   -2.49534620  -5.47148369  -2.67491867
H   -2.32489730  -5.50724418  -0.89712299
O   -1.47456252   2.01672723  -0.80946055
H   -1.05399905   2.03284669  -1.68197978
C   -0.63450565   1.27406946   0.05961808
H   -1.12310355   1.26589199   1.03772360
H    0.36147392   1.72846036   0.17933001
H   -0.50334823   0.23000820  -0.26520671
O    1.78380763  -4.97304670  -1.61357878
H    0.83726093  -4.80230543  -1.72899124
C    2.32618057  -5.27119109  -2.89008781
H    3.39272386  -5.46085054  -2.74176415
H    2.22351794  -4.43660959  -3.60122171
H    1.87926327  -6.17024228  -3.34258003
O    0.31411173   4.37651621   1.84767873
H   -0.22866508   3.88500707   2.48189902
C   -0.56436935   5.05638549   0.96530548
H    0.06341183   5.60478279   0.25774885
H   -1.20941763   5.78300194   1.48368621
H   -1.20599690   4.36965262   0.39129382
O    2.83536201  -3.25877313   0.33090588
H    2.55849913  -3.88735354  -0.35221701
C    3.74190052  -3.92984455   1.19136207
H    4.04367956  -3.20753668   1.95470075
H    4.64853093  -4.27356841   0.66920066
H    3.28537076  -4.79336798   1.69997313
O   -3.59736677  -0.77741827   0.70085373
H   -3.80735206   0.16716696   0.65515690
C   -4.22087138  -1.30125244   1.86247912
H   -3.97413845  -2.36582270   1.89851008
H   -5.31766674  -1.20572553   1.83617540
H   -3.85352496  -0.83411453   2.78963397
O   -3.94438317   2.00586350   0.47462287
H   -3.09635799   2.07469007   0.01143881
C   -4.46020336   3.31875798   0.62552476
H   -5.41532816   3.22279409   1.14898702
H   -4.64808091   3.81532891  -0.33930511
H   -3.80437037   3.96668046   1.22790080
