90
Energy:   -536.60111140
O   -2.59896923   1.84809271  -1.17303142
H   -1.97240064   1.74368696  -0.44163925
C   -3.89488938   1.55734991  -0.67444005
H   -4.58813418   1.67976445  -1.51104721
H   -4.20513463   2.24343141   0.12918760
H   -3.98606760   0.52431911  -0.30388474
O    1.90900185   2.68306234   0.83125432
H    2.73317303   2.58989082   0.33077033
C    1.55231400   4.05609192   0.82138933
H    0.62208676   4.14310818   1.38935998
H    1.36944395   4.44065406  -0.19421287
H    2.30809866   4.69526455   1.30411618
O    1.58722553  -0.94779422   3.65666903
H    2.03278814  -1.22678158   2.84299631
C    1.77437852   0.45195031   3.79166086
H    1.26630649   0.74942475   4.71299520
H    1.33328238   1.02219230   2.95917326
H    2.83556013   0.73241241   3.88117017
O    1.02163934   0.83496895  -3.04943075
H    0.12533246   0.48070495  -3.14717670
C    0.90707729   2.19654159  -2.66794779
H    1.92556392   2.57994269  -2.56224161
H    0.39175263   2.32598356  -1.70334290
H    0.38894598   2.80768977  -3.42347091
O    1.34531399  -3.22779422  -0.82127637
H    0.43737331  -3.40647477  -0.53467514
C    1.28179834  -2.63979612  -2.11075601
H    2.31278937  -2.44507531  -2.41837021
H    0.73760814  -1.68239626  -2.11521341
H    0.82202580  -3.30431050  -2.85895865
O    3.77145073   0.40745075  -2.73308887
H    2.82128098   0.50688923  -2.89344069
C    4.32879448  -0.26388283  -3.85166517
H    5.39924457  -0.36756300  -3.65450472
H    4.20750830   0.29997461  -4.78981857
H    3.90892910  -1.27178576  -3.99526905
O   -1.24811076  -3.46014103   0.28985972
H   -2.10727311  -3.01274692   0.29995099
C   -0.82424237  -3.60848836   1.63554261
H    0.14477031  -4.11407054   1.60577187
H   -1.51326897  -4.22598994   2.23279588
H   -0.68995248  -2.64300417   2.14797194
O    4.20779145   2.34262326  -0.74730378
H    4.16147740   1.69608667  -1.46721261
C    5.56462011   2.44286549  -0.34543161
H    5.59869367   3.17504458   0.46588706
H    6.22243526   2.79835725  -1.15393774
H    5.96644319   1.49127579   0.03639635
O   -0.95615019  -1.59729439   4.61829283
H   -0.05988983  -1.35518970   4.34165956
C   -0.84147913  -2.54572521   5.66703651
H   -1.85991445  -2.80749815   5.96661893
H   -0.31895956  -2.14336679   6.54899928
H   -0.33050248  -3.46884844   5.35156273
O   -2.21201635   3.77822555  -3.22125090
H   -2.39338624   3.16956393  -2.48977345
C   -2.49566099   3.09384006  -4.43108395
H   -2.28602153   3.79372986  -5.24452773
H   -3.55029767   2.78640082  -4.50854309
H   -1.86288233   2.20404489  -4.57472608
O   -3.18782827  -0.93643974   3.05417661
H   -2.46848474  -1.19072821   3.65108994
C   -3.29193954   0.47806479   3.08369871
H   -4.10667085   0.74731555   2.40605417
H   -2.37628501   0.97926625   2.73276967
H   -3.53830932   0.86552257   4.08467610
O   -1.65210060  -0.10034762  -2.99027025
H   -2.07129344   0.54781541  -2.40496236
C   -2.22789693  -1.36679274  -2.71258495
H   -1.74445201  -2.08493933  -3.38044099
H   -3.31117671  -1.39367204  -2.90895129
H   -2.05447926  -1.69461848  -1.67565008
O   -0.60964976   1.41412586   0.73700339
H    0.26326282   1.82410897   0.82844047
C   -0.41360069   0.02191659   0.54765741
H   -1.40665419  -0.42428487   0.44649318
H    0.09026037  -0.45663581   1.40199280
H    0.15801786  -0.20671569  -0.36544545
O    2.64507503  -1.71794891   1.16467491
H    2.29692920  -2.31370398   0.48475311
C    3.30259086  -0.64842619   0.50412372
H    3.68863615   0.01294076   1.28453899
H    2.62416880  -0.06223862  -0.13533306
H    4.15297287  -0.98579109  -0.10891191
O   -3.67053554  -2.01349871   0.52775390
H   -3.57797720  -1.60150184   1.39959953
C   -4.78463825  -2.89006338   0.58200614
H   -4.87448411  -3.34557010  -0.40790626
H   -5.72758516  -2.36608938   0.80354552
H   -4.65458785  -3.69795224   1.31901348
