90
Energy:   -542.94952149
O   -3.13119568   3.01781599  -0.02932531
H   -2.19148403   3.14707142  -0.22594251
C   -3.38484176   1.62206760  -0.03848220
H   -4.44756119   1.49442077   0.18471932
H   -2.80774024   1.07995706   0.72692445
H   -3.18371003   1.15972586  -1.01754475
O    2.34262700   3.20631475  -0.04787489
H    2.96513302   2.48781377  -0.23406263
C    2.34690531   3.42721221   1.35345297
H    1.64056765   4.23939753   1.54561778
H    3.33372681   3.73623660   1.73222015
H    2.01635104   2.54517292   1.92399473
O    2.47712611  -0.30402863   1.84062977
H    1.53655534  -0.42741001   1.64434698
C    2.61573791  -0.22366787   3.25019094
H    3.68099825  -0.08477662   3.45369724
H    2.28705485  -1.14125861   3.76280386
H    2.07133134   0.63017808   3.68302571
O   -3.13797992  -1.25943165  -2.32002001
H   -2.67258316  -0.60342786  -2.85991643
C   -4.50174738  -1.24898771  -2.71061319
H   -5.01120699  -1.99341503  -2.09274260
H   -4.64375087  -1.52695836  -3.76671198
H   -4.98559051  -0.27458750  -2.53968223
O   -0.39651789   3.62515537  -0.61002441
H    0.54318427   3.47397796  -0.42966780
C   -0.53623193   4.95731475  -1.07731997
H   -1.60049177   5.11069946  -1.27558576
H    0.01509853   5.13975821  -2.01301567
H   -0.21628388   5.70439869  -0.33416713
O   -0.74666343  -0.94360249   4.16504413
H   -0.60230258  -0.00365723   3.98041984
C   -2.12449384  -1.21507994   3.96400401
H   -2.26952285  -2.27782164   4.17621116
H   -2.44840929  -1.02642206   2.92850205
H   -2.77455609  -0.63982357   4.64170343
O   -1.71526232   0.68681344  -3.71061391
H   -0.75971528   0.62094038  -3.85557552
C   -2.04103648   2.06367164  -3.60733535
H   -3.12074031   2.11966365  -3.44427175
H   -1.80456688   2.62651635  -4.52388610
H   -1.54157887   2.55631450  -2.75844051
O   -0.36976740   1.65659918   3.06109533
H   -0.35233629   1.17443901   2.22107093
C   -1.21409588   2.78412203   2.89276408
H   -1.22237727   3.31581744   3.84812611
H   -2.25113669   2.50601864   2.64785145
H   -0.84839063   3.47753831   2.11932315
O   -2.51045018  -1.87828716   0.32901706
H   -2.78179571  -1.69155871  -0.58198643
C   -2.08635926  -3.23097036   0.38313564
H   -1.78427154  -3.42441094   1.41600008
H   -1.22182362  -3.43197743  -0.26874750
H   -2.88905279  -3.93897417   0.12392330
O   -0.30628404  -0.20683447   0.95284342
H   -1.00472356  -0.86563529   0.82405293
C    0.08378906   0.26286661  -0.32768680
H    0.87090985   1.00393021  -0.16413003
H   -0.73977127   0.75355221  -0.86967698
H    0.49354737  -0.53501804  -0.96663558
O    0.50671985  -2.97630803   2.64710080
H    0.06897618  -2.27844676   3.15680013
C    0.80292829  -4.03921922   3.53873646
H    1.29554820  -4.81652326   2.94830504
H   -0.09954452  -4.47658640   3.99374206
H    1.48830527  -3.73820397   4.34646509
O    3.85122742   0.82159895  -0.31388659
H    3.46464868   0.38332513   0.45870399
C    4.37007458  -0.18691768  -1.16607531
H    4.80161284   0.32406751  -2.03103431
H    3.59308438  -0.87727947  -1.53003159
H    5.16546408  -0.77985561  -0.68799844
O    1.58509892  -3.13131525   0.02962223
H    1.18244273  -3.03519177   0.90543702
C    2.95915004  -3.42969222   0.21800612
H    3.39728579  -3.53468907  -0.77823578
H    3.11857858  -4.37368805   0.76227787
H    3.49975848  -2.62860182   0.74599667
O    1.05500849   0.34273318  -3.84865409
H    1.34192430  -0.50470258  -3.47723085
C    1.96700652   1.33634650  -3.40873825
H    1.62906235   2.28429742  -3.83613499
H    2.99587187   1.15284787  -3.75592936
H    1.98389112   1.44275034  -2.31275902
O    1.44451509  -2.22883457  -2.64409636
H    1.52481488  -2.55580409  -1.73576484
C    0.25678202  -2.77521448  -3.19481674
H    0.18184687  -2.39680428  -4.21788841
H   -0.64748563  -2.46409286  -2.64866594
H    0.27516021  -3.87546474  -3.23827869
