90
Energy:   -535.50809393
O   -3.23767868   2.82334494  -0.03158312
H   -2.29549912   2.98646299  -0.18686818
C   -3.40745847   1.42762696   0.15730818
H   -4.47411976   1.26156006   0.33091888
H   -2.85598741   1.04657231   1.03106694
H   -3.10960967   0.83976325  -0.72500678
O    2.23245669   3.24517244  -0.08017836
H    2.77128168   2.45088739  -0.21133534
C    2.37072392   3.64008946   1.27534977
H    1.75750436   4.53588819   1.40570165
H    3.40873486   3.89545738   1.54010974
H    2.01066739   2.87437018   1.98019771
O    2.70875583  -1.07306794   1.78236695
H    1.93447488  -1.55121428   2.11446388
C    3.15537477  -0.20773597   2.81399958
H    4.02777342   0.32297517   2.42316525
H    3.46425185  -0.75102774   3.72075552
H    2.39935115   0.54093053   3.09808427
O   -3.10991911  -1.50570311  -2.25000483
H   -2.70733780  -0.80746865  -2.78742478
C   -4.50579598  -1.49259635  -2.50276904
H   -4.94354962  -2.28497376  -1.88958474
H   -4.74919468  -1.70222329  -3.55614027
H   -4.98033922  -0.54008101  -2.21939548
O   -0.52535990   3.53647458  -0.60724646
H    0.42047209   3.43076008  -0.42655456
C   -0.70595622   4.79736161  -1.23181242
H   -1.77661419   4.90013565  -1.42831738
H   -0.17343620   4.87619423  -2.19253360
H   -0.39416090   5.63751732  -0.59173477
O   -0.92249181  -0.83507692   4.32857452
H   -0.67755539   0.06909061   4.08177401
C   -2.27754891  -1.03059722   3.95692165
H   -2.53699845  -2.05378058   4.24199524
H   -2.44039363  -0.92657045   2.87274576
H   -2.96461588  -0.34618820   4.47874595
O   -1.87762551   0.56758389  -3.65063954
H   -0.93917193   0.67025663  -3.86786401
C   -2.41736386   1.86411844  -3.45010414
H   -3.47476076   1.72997630  -3.20637709
H   -2.35188058   2.49582159  -4.34979319
H   -1.93960200   2.39903834  -2.61441182
O   -0.13786051   1.60734935   3.08958799
H   -0.18730494   1.08106213   2.27779967
C   -1.00466197   2.71967047   2.93489241
H   -0.93676211   3.30163828   3.85803286
H   -2.05598368   2.42325870   2.79474941
H   -0.71315797   3.37270641   2.09742790
O   -2.44630397  -2.11654541   0.39382158
H   -2.73807050  -1.97117526  -0.51840816
C   -1.69249415  -3.31808770   0.41832962
H   -1.37172641  -3.46666200   1.45298847
H   -0.79246061  -3.26841203  -0.21432296
H   -2.28279808  -4.19669751   0.11441615
O   -0.46488290  -0.19621756   0.99143121
H   -1.08876104  -0.92234338   0.84330745
C    0.07935830   0.16716677  -0.26725347
H    0.77978465   0.98606308  -0.08205910
H   -0.68558466   0.52543678  -0.97385251
H    0.63460427  -0.65573603  -0.74402409
O    0.71225031  -2.67965020   2.97285298
H    0.07211737  -2.09265144   3.40190490
C    1.20662362  -3.57164812   3.95899116
H    1.92617121  -4.22549737   3.45877358
H    0.41703137  -4.20338630   4.39514283
H    1.72874365  -3.05291942   4.77819110
O    3.52915958   0.76080089  -0.28174652
H    3.25112691   0.11099505   0.38072875
C    4.29174110   0.07612885  -1.26267843
H    4.59680734   0.82270373  -2.00095057
H    3.71326119  -0.70273055  -1.78375074
H    5.20151660  -0.38562488  -0.84810712
O    2.39572945  -2.79236584  -0.48869565
H    2.58171864  -2.21880023   0.26949547
C    2.22851223  -4.11308105   0.00149156
H    2.01977031  -4.74585243  -0.86540658
H    1.38298652  -4.20305125   0.70132652
H    3.13249369  -4.50036597   0.49707732
O    0.89646201   0.71587152  -4.00936656
H    1.24197920  -0.14338791  -3.72526381
C    1.67095200   1.72185447  -3.37635996
H    1.26839238   2.68305182  -3.70731404
H    2.73431865   1.68125894  -3.65987484
H    1.60247477   1.68305969  -2.27791417
O    1.51726800  -1.86051388  -2.99866056
H    1.86009346  -2.24958854  -2.18042166
C    0.26724602  -2.47169597  -3.27512985
H   -0.10469597  -2.02194059  -4.19971866
H   -0.47795457  -2.29230651  -2.48438790
H    0.35097196  -3.55826670  -3.43365853
