90
Energy:   -535.52421805
O   -3.32975815  -0.32100755  -1.17913863
H   -2.93883202   0.04869128  -1.98469608
C   -4.06222750   0.71355573  -0.54219181
H   -4.49578973   0.28001934   0.36310106
H   -4.88543076   1.09727198  -1.16498837
H   -3.42734294   1.56250390  -0.24388669
O    3.04342472   2.43975816  -1.11545192
H    3.19603743   1.54036863  -0.78952078
C    3.22146643   3.32893123  -0.02448620
H    3.04589191   4.33724953  -0.40913280
H    4.24110366   3.29447330   0.39015811
H    2.50727954   3.14651188   0.79370546
O    1.15283211   1.52588498   2.51392514
H    0.94167010   0.87098902   1.83205626
C    2.32197175   1.08569231   3.18614288
H    2.54563296   1.83471373   3.95062164
H    3.19370192   1.00948217   2.51752052
H    2.18371978   0.11563278   3.68878415
O   -2.02660018   0.80257679  -3.44899748
H   -1.14275285   0.56633299  -3.76747202
C   -2.86277962   0.96792627  -4.58301568
H   -3.85418564   1.23371121  -4.20624299
H   -2.95949385   0.04631937  -5.17804880
H   -2.52220287   1.77685389  -5.24816297
O   -1.95098270   3.63286925   0.60967467
H   -1.83541175   3.60122525  -0.35160848
C   -0.75092728   4.14012042   1.17100971
H   -0.89838984   4.16911668   2.25401442
H   -0.52072054   5.16175332   0.83035094
H    0.12021401   3.49960768   0.96212309
O   -0.00935218  -1.54531753   4.17362538
H   -0.49030462  -0.70632233   4.11710038
C   -0.37113668  -2.16731781   5.39622974
H    0.17946535  -3.11075180   5.44371584
H   -1.44670400  -2.39644828   5.45480864
H   -0.09539748  -1.56642464   6.27695252
O   -1.48205758   3.26139846  -2.14355094
H   -1.72011530   2.45701016  -2.62802102
C   -0.17694676   3.63923795  -2.55154217
H    0.07537840   4.54673207  -1.99632002
H   -0.11747673   3.86929716  -3.62686231
H    0.57991390   2.87428465  -2.31747866
O   -1.25706412   0.95416277   3.86530316
H   -0.46731868   1.36610182   3.48447298
C   -2.38606035   1.47465762   3.18193913
H   -3.26671409   1.00019559   3.62332329
H   -2.37624314   1.24184501   2.10561239
H   -2.48985347   2.56455783   3.30077457
O   -1.84393275  -2.14468693   0.39117694
H   -2.46832463  -1.57380958  -0.08068860
C   -2.31057182  -2.28413097   1.72359471
H   -1.59579948  -2.92993529   2.24082046
H   -3.30244441  -2.75938843   1.77924040
H   -2.35458205  -1.32413191   2.26140717
O    0.41334102  -0.39246172   0.55070598
H   -0.21689698  -1.12790627   0.56927062
C   -0.05858399   0.55506483  -0.39375894
H    0.66289316   1.37658088  -0.40196305
H   -1.04351432   0.96838067  -0.12569250
H   -0.11998420   0.14444870  -1.41375979
O    1.43648977  -3.06451693   2.29869743
H    0.93852965  -2.52889566   2.93396813
C    2.81254074  -2.76342659   2.46710799
H    3.35877867  -3.37522812   1.74405321
H    3.18234304  -3.01307106   3.47393530
H    3.04447113  -1.70619970   2.26398996
O    3.15049311  -0.22680966  -0.14174214
H    2.23115095  -0.40592614   0.10554423
C    3.56063747  -1.24490160  -1.04052141
H    4.59811548  -1.02781934  -1.30884934
H    2.96459201  -1.26018006  -1.96641218
H    3.52763116  -2.24898575  -0.58940842
O    1.21055010  -3.74544703  -0.42425901
H    1.28145337  -3.45446146   0.49700284
C    0.36280575  -4.88257893  -0.45244318
H    0.29390273  -5.19724169  -1.49729959
H   -0.65515518  -4.66306893  -0.09418596
H    0.76271322  -5.72571981   0.13233439
O    0.57465303   0.10279801  -4.15464103
H    0.65455638  -0.77005517  -3.74212915
C    1.84718668   0.72669071  -4.09179385
H    1.73920488   1.70851333  -4.56067494
H    2.62171225   0.16921565  -4.64143832
H    2.19580472   0.87844453  -3.05824967
O    0.47470004  -2.33101458  -2.77354591
H    0.73598925  -2.79864028  -1.96640439
C   -0.87377501  -2.67280468  -3.05162563
H   -1.15186762  -2.13759505  -3.96360170
H   -1.56432578  -2.36475867  -2.25098550
H   -1.01061211  -3.75037350  -3.23300477
