90
Energy:   -539.35973194
O   -3.05828266   2.95661070  -0.11614115
H   -2.09790470   3.08103351  -0.14096873
C   -3.30801231   1.58085155   0.12355795
H   -4.39423252   1.45841553   0.14846320
H   -2.90350552   1.23703830   1.08841236
H   -2.90941593   0.93147140  -0.67155442
O    2.19762594   2.73342309   0.96868710
H    2.29898409   1.85820843   1.37136450
C    3.49619659   3.26945067   0.77139928
H    3.36351823   4.25514884   0.31721786
H    4.10909986   2.65917562   0.08971660
H    4.05020087   3.39976342   1.71420105
O    2.31170230   0.07171259   1.90954194
H    1.47630206  -0.22175419   1.51659544
C    2.30990409  -0.32579004   3.27135037
H    3.25775233   0.01258185   3.69863645
H    2.25028112  -1.41842579   3.39532437
H    1.49204013   0.13444583   3.84759582
O   -2.73600477  -1.06420022  -2.61656392
H   -2.26472885  -0.34728830  -3.06640787
C   -4.09954853  -0.99076001  -3.00112695
H   -4.61568153  -1.80514983  -2.48550969
H   -4.24378747  -1.12686402  -4.08438507
H   -4.57480851  -0.04290405  -2.70368055
O   -0.26016891   3.52443368  -0.18070867
H    0.58731388   3.26353717   0.20932877
C   -0.27729375   4.94044020  -0.26536121
H   -1.23859290   5.21716783  -0.70673518
H    0.52169421   5.33754192  -0.91088875
H   -0.20158036   5.42629518   0.72002691
O   -1.44629381  -1.26628222   4.05705001
H   -1.26037831  -0.33600460   3.86098307
C   -2.79062888  -1.52432564   3.68461132
H   -2.98326077  -2.57628159   3.91213460
H   -2.97132740  -1.36895701   2.60944344
H   -3.51297531  -0.91494531   4.24998605
O   -1.35267973   1.09413212  -3.74001937
H   -0.40132187   1.25869325  -3.81914662
C   -1.97914397   2.32947697  -3.43342608
H   -3.05000099   2.12595094  -3.34782460
H   -1.83725650   3.08538282  -4.22162124
H   -1.63508888   2.75511428  -2.47779210
O   -0.84057658   1.26666864   3.02347645
H   -0.59596708   0.97801482   2.13169821
C   -0.86650211   2.68506909   3.02481479
H   -1.14367682   2.99325685   4.03658536
H   -1.61131692   3.09742571   2.32625179
H    0.11364041   3.12851755   2.78933348
O   -2.45974478  -1.90061452   0.03699977
H   -2.61290571  -1.67166164  -0.89173356
C   -2.07247588  -3.26449454   0.08586537
H   -1.90397606  -3.50568943   1.13891714
H   -1.13829997  -3.46122089  -0.46312592
H   -2.85095361  -3.94164680  -0.29912111
O   -0.23275820  -0.26681643   0.69009631
H   -0.95731107  -0.90213420   0.59101177
C    0.15709950   0.14755128  -0.60945905
H    0.97385076   0.86272497  -0.47934685
H   -0.65471791   0.65224382  -1.15628193
H    0.52755596  -0.68490963  -1.22796386
O    0.19874103  -3.16247146   2.80944191
H   -0.37352014  -2.51242058   3.24346297
C    0.22251735  -4.32530340   3.62171671
H    0.87146653  -5.04700258   3.11822843
H   -0.77219235  -4.78343722   3.73766211
H    0.63656154  -4.13526781   4.62432891
O    3.10759705  -0.46057303  -2.69381807
H    2.68666346  -1.33304440  -2.69946664
C    3.85056519  -0.34890823  -1.49046314
H    4.31803018   0.63945515  -1.50043805
H    4.64894289  -1.10337771  -1.41206556
H    3.21761474  -0.41812714  -0.59193111
O    1.51351168  -3.43375075   0.33810852
H    1.01872787  -3.30950017   1.16162175
C    2.89541868  -3.40172596   0.65723427
H    3.43797312  -3.54313349  -0.28144767
H    3.19128494  -4.20740041   1.34725541
H    3.20939882  -2.43960317   1.09141573
O    1.41853464   1.57113958  -3.63594942
H    2.06898138   0.89119009  -3.40570822
C    1.79935641   2.77047528  -2.98089031
H    1.05619130   3.52559966  -3.25103468
H    2.78805164   3.13456634  -3.30135367
H    1.80377348   2.67294498  -1.88396476
O    1.68699330  -2.87014862  -2.42115180
H    1.55631543  -3.15087198  -1.50325150
C    0.44481159  -3.00395408  -3.09317447
H    0.60998763  -2.68363078  -4.12545111
H   -0.34343097  -2.36819700  -2.66043445
H    0.08145758  -4.04337060  -3.11226655
