90
Energy:   -538.04755080
O   -3.37675078   2.08810749   0.69887412
H   -3.12391531   2.20750060  -0.22861863
C   -4.02177911   0.82953974   0.81058547
H   -4.29985773   0.71121473   1.86137407
H   -3.36554666  -0.01062196   0.53442497
H   -4.93971668   0.76695107   0.20539904
O    2.92671199   3.13780736  -0.53708462
H    3.27030360   2.26193902  -0.76778516
C    3.98897669   3.87776062   0.04308490
H    3.58468374   4.86142399   0.29693284
H    4.83309213   4.02382970  -0.64894854
H    4.37277450   3.41760224   0.96706046
O    2.66877955  -0.69109495   1.34176334
H    1.73036365  -0.89783429   1.21905338
C    2.76704614   0.25498063   2.39429289
H    3.83041092   0.47666100   2.51918631
H    2.38438884  -0.13251384   3.35147561
H    2.24592111   1.19840108   2.16809853
O   -2.43988483  -2.17401604  -2.28381210
H   -1.59625378  -1.96761785  -2.71289218
C   -3.35656672  -1.14457515  -2.61919179
H   -4.30124834  -1.39276507  -2.12780232
H   -3.54265957  -1.07721236  -3.70252416
H   -3.03453424  -0.15469776  -2.25972668
O    0.75599347   3.34958324   1.23684700
H    1.51564916   3.34427088   0.63574944
C   -0.34506104   3.90311959   0.53413066
H   -1.19195613   3.90161047   1.22568805
H   -0.62590351   3.31086816  -0.35082305
H   -0.16692553   4.94190701   0.21480988
O   -0.32232227  -0.98149742   3.74288344
H   -0.23643659  -0.01922242   3.67165318
C   -1.70505602  -1.29496016   3.69469371
H   -1.78367385  -2.38246498   3.77616584
H   -2.17784877  -0.98844241   2.74849541
H   -2.27156412  -0.84844014   4.52683900
O   -2.51692308   2.38711663  -1.97691001
H   -1.79557382   1.99840618  -2.49361370
C   -2.97014005   3.53930210  -2.66943930
H   -3.78239394   3.96463607  -2.07377174
H   -3.36668018   3.30557296  -3.66989117
H   -2.18734766   4.30648091  -2.77644435
O   -0.16353876   1.83953628   3.44204155
H    0.15519030   2.38597088   2.70839021
C   -1.40269879   2.37873745   3.87364125
H   -1.74744950   1.75142551   4.70014708
H   -2.17230785   2.35919264   3.08617873
H   -1.31096074   3.41168330   4.24429518
O   -2.46567253  -2.58601657   0.49466381
H   -2.57101763  -2.52306322  -0.46625375
C   -1.95812797  -3.87779928   0.78831278
H   -1.84551631  -3.93163695   1.87454725
H   -0.97205500  -4.06078154   0.33338978
H   -2.64012565  -4.68387997   0.47543833
O   -0.01425733  -1.12444621   0.48034164
H   -0.82432364  -1.60065466   0.71580154
C   -0.37513858   0.21229925   0.17145644
H    0.54885532   0.73439343  -0.09148488
H   -0.83288932   0.73714013   1.02455881
H   -1.06159394   0.27989714  -0.68702297
O    0.77844203  -3.41718563   2.74484365
H    0.40828493  -2.57565709   3.05019053
C    2.03697735  -3.58837352   3.37675925
H    2.43981322  -4.54081955   3.02171697
H    1.95850372  -3.63871170   4.47406745
H    2.75521846  -2.79541036   3.11576792
O    3.74349898   0.49782766  -0.96180409
H    3.45758112   0.01791272  -0.17037759
C    3.69023693  -0.40459435  -2.05511623
H    4.01535718   0.15219132  -2.93816309
H    2.67356833  -0.78278753  -2.24520094
H    4.36358373  -1.26671273  -1.92809930
O    1.38014856  -2.89648119  -1.17963394
H    0.95344292  -2.31139231  -0.53619274
C    2.22182116  -3.78467741  -0.46183977
H    2.69449111  -4.43641153  -1.20164445
H    1.66556746  -4.41892164   0.24603975
H    3.01806734  -3.26234033   0.09127263
O   -0.40232502   1.13119161  -3.31589833
H   -0.17349956   0.19331797  -3.39624272
C    0.79816171   1.84816284  -3.07648725
H    0.52219760   2.90248874  -2.98859014
H    1.52225123   1.75237522  -3.90068166
H    1.29453354   1.54607027  -2.14100213
O    0.16042514  -1.64334582  -3.35165943
H    0.65387521  -2.13344696  -2.67732185
C    0.24235926  -2.37695374  -4.56312135
H   -0.31861210  -1.81090947  -5.31171351
H   -0.20784422  -3.37893008  -4.48477871
H    1.27692541  -2.48808974  -4.92381374
