90
Energy:   -535.69260928
O   -3.11619667   2.05344042  -0.48728270
H   -2.32219261   2.60212724  -0.40407448
C   -3.98724841   2.39215987   0.57999036
H   -4.87624577   1.76502219   0.47105354
H   -4.30685653   3.44559787   0.55005096
H   -3.54647165   2.19073906   1.56889017
O    1.46188167   3.22080747   1.36298228
H    1.46571653   2.40482006   1.88506763
C    2.55542389   3.16003159   0.46131410
H    2.53618441   4.08665750  -0.11875441
H    2.48054490   2.31561700  -0.24163288
H    3.52748632   3.09914532   0.97528378
O    1.19742401   0.72298207   2.65053541
H    0.92087233   0.10086569   1.96139561
C    1.85032323  -0.02196499   3.66606988
H    2.15520249   0.69401478   4.43412379
H    2.75302355  -0.53703784   3.30191412
H    1.19088733  -0.76769979   4.13702766
O   -2.01120921  -1.64221548  -2.73017808
H   -1.60613174  -0.88694693  -3.18173643
C   -3.30357100  -1.24454901  -2.30099730
H   -3.74556607  -2.10687160  -1.79451403
H   -3.96252661  -0.96561361  -3.13810535
H   -3.27539278  -0.40669567  -1.58686489
O   -0.81424959   3.67385940  -0.24241293
H   -0.03346793   3.57895621   0.32309274
C   -0.40592844   4.32655866  -1.43396288
H   -1.29734262   4.42534691  -2.05934823
H    0.34481818   3.75130350  -1.99808906
H   -0.00443041   5.33539535  -1.25004656
O   -2.40406495  -0.98207848   3.03928622
H   -2.16577714  -0.07031445   3.26362646
C   -3.17132837  -0.94540804   1.84660189
H   -3.43123735  -1.98037146   1.60830954
H   -2.61240721  -0.52882682   0.99405009
H   -4.10704640  -0.37594338   1.96026408
O   -0.64728197   0.60906916  -3.82791588
H    0.20137220   0.98644597  -3.55260493
C   -1.61099468   1.64969735  -3.79817482
H   -2.56073508   1.20736716  -4.11094050
H   -1.37184395   2.47071295  -4.49208955
H   -1.74735135   2.07435105  -2.79127193
O   -1.35328939   1.60461915   3.50514694
H   -0.44726294   1.35564596   3.26945285
C   -1.42672808   3.02132152   3.49540350
H   -2.45368265   3.28451176   3.76294865
H   -1.21108136   3.45150853   2.50484156
H   -0.75227826   3.48716259   4.23085362
O   -0.42722551  -3.16443883  -1.00882300
H   -1.07426076  -2.76311960  -1.60774833
C   -1.13481410  -4.00504047  -0.11147076
H   -0.39107066  -4.44892223   0.55583717
H   -1.66526443  -4.82298272  -0.62369167
H   -1.86078895  -3.45283672   0.50562637
O    0.24831413  -0.83679667   0.55856137
H    0.02468297  -1.70586367   0.19368478
C   -0.05042227   0.13517848  -0.43065784
H    0.20737122   1.10796626  -0.00321001
H   -1.11793635   0.15299310  -0.70060906
H    0.53859137  -0.00008711  -1.35127909
O   -0.38173621  -2.94958138   3.02420886
H   -1.07075608  -2.26984165   2.98385056
C   -0.50105778  -3.60972945   4.27420913
H    0.28231110  -4.37195687   4.30297991
H   -1.47240767  -4.11365567   4.39796328
H   -0.34968573  -2.93219676   5.12908532
O    3.40651826  -0.12527664  -1.37657757
H    2.98424898  -0.94421329  -1.67566737
C    3.83894752  -0.32702260  -0.04059955
H    4.31215594   0.60486873   0.28055078
H    4.58153252  -1.13535526   0.04852488
H    3.00675325  -0.54222224   0.64781830
O    2.39696633  -3.12261030   2.45662924
H    1.44492390  -3.05000517   2.62023539
C    2.57054557  -3.62908442   1.14289868
H    3.64834529  -3.70456472   0.97516172
H    2.15080639  -2.96414420   0.37189229
H    2.13372574  -4.63155747   1.01246263
O    1.87192150   1.62548160  -2.98009619
H    2.44169657   1.11273293  -2.38775469
C    2.61964268   1.91861750  -4.14950551
H    1.96301027   2.49637800  -4.80563955
H    2.93319296   1.01293878  -4.69191643
H    3.51427966   2.52603904  -3.94108024
O    1.98513766  -2.37381062  -2.26730771
H    1.21093503  -2.76041279  -1.83190869
C    1.69824896  -2.28203242  -3.65359968
H    2.58054545  -1.84465304  -4.12871795
H    0.83687419  -1.63001453  -3.86733669
H    1.51345920  -3.26448867  -4.11556267
