18
Energy:   -141.20319808
O   -1.75789070   0.16851454   0.19959182
H   -2.56024724   0.69047534   0.20316262
H   -1.32337220   0.40196542  -0.62072897
O    0.36513780   0.89732533   1.78049408
H   -0.44851705   0.65602075   1.33780939
H    0.74052816   0.06365198   2.06387133
O   -0.31540947   0.97391890  -1.98556920
H    0.40871733   1.36895325  -1.49995609
H   -0.03399522   1.00075163  -2.90007337
O    1.63458266   1.98190948  -0.37045090
H    2.22112238   2.67715846  -0.07240417
H    1.25606251   1.62617187   0.43354232
C   -0.30214679  -2.97181982  -0.09025030
H   -0.12783366  -4.02671437  -0.13163392
H    0.00811865  -2.52267379  -1.01052325
H   -1.34520860  -2.78838785   0.06230743
C    0.50165304  -2.36399859   1.07424925
N    1.10011854  -1.91144806   1.94127209
