18
Energy:   -138.54931357
O    0.73388844  -0.21612940   1.64913032
H    0.68582876   0.42109930   0.93648617
H    1.40564402  -0.83822990   1.36990415
O    0.43523068   1.46837458  -0.47036603
H   -0.51847484   1.53965845  -0.43041292
H    0.74914997   2.35942151  -0.31634691
O   -1.98199890  -0.34888717   1.85918591
H   -2.17703313  -0.23864503   2.78979871
H   -1.02802470  -0.41713219   1.82035702
O   -2.28124749   1.49022693  -0.11636832
H   -3.13928102   1.38052524  -0.52621689
H   -2.26463463   0.83790858   0.58394349
C    1.96295532  -1.60323864  -2.53096759
H    1.07077971  -1.02369552  -2.64521573
H    1.80892117  -2.57963376  -2.94063225
H    2.76850670  -1.12323730  -3.04631676
C    2.30932409  -1.72291174  -1.03520456
N    2.56721139  -1.81201380   0.07845900
