18
Energy:   -141.24869462
O   -1.50425568   0.36559221   0.96826549
H   -1.96322265   0.32873690   1.80744536
H   -1.08862748  -0.49255147   0.88415563
O    2.26736119  -0.62833444   1.06269426
H    1.86996980   0.23734779   0.96832159
H    3.11232414  -0.46033252   1.47988104
O   -0.07884900  -1.98226446   0.79025234
H    0.09468806  -2.91344722   0.65235596
H    0.78789665  -1.58921520   0.89270283
O    0.89449526   1.70513805   0.77907386
H    0.01148857   1.35851307   0.90706666
H    0.90669878   2.00061263  -0.13129842
C   -1.53074622   0.08274448  -2.54202109
H   -2.25806486   0.10718243  -1.75760376
H   -1.08019858  -0.88700775  -2.58057669
H   -2.00727685   0.29205391  -3.47690462
C   -0.44655305   1.14204315  -2.26997053
N    0.36067804   1.93073916  -2.06741652
