18
Energy:   -141.22573812
O   -0.72174091  -0.13192042   2.04298295
H   -1.12929799  -0.77377814   1.46147824
H   -1.43199459   0.15859119   2.61514951
O   -1.68107537  -1.91589213   0.21861969
H   -0.96914319  -1.82465798  -0.41467389
H   -2.11456267  -2.73414174  -0.02384308
O    1.65207043  -0.08501362   0.66584509
H    0.86978388  -0.03752243   1.21539416
H    2.30686834  -0.51363264   1.21698689
O    0.47493074  -1.48607180  -1.38606160
H    1.00222707  -1.04066142  -0.72288740
H    0.30174284  -0.81450970  -2.04579044
C    0.37434214   2.81358305  -0.67150146
H    0.14006223   3.80602727  -0.99564273
H    1.39663231   2.77269179  -0.35821275
H   -0.26058608   2.54659759   0.14732942
C    0.15401805   1.82831582  -1.83438829
N   -0.01002325   1.09473958  -2.70021039
