18
Energy:   -141.21266965
O    0.48001529  -0.51111977   2.48708100
H   -0.34988622  -0.51421195   2.01012631
H    0.26005292  -0.85300452   3.35366234
O   -1.73854232  -0.58467591   0.90731722
H   -1.31542847  -0.88274404   0.10210799
H   -2.05913251   0.29291977   0.69927975
O    2.00952612  -0.79302268   0.25414456
H    1.53742979  -0.68321803   1.07955345
H    2.92183588  -0.60239193   0.47227909
O   -0.22319431  -1.25498804  -1.28545679
H    0.60960414  -1.09820574  -0.84037489
H   -0.17786208  -2.16957042  -1.56423252
C   -0.03304271   2.15198261  -2.03998626
H   -0.06841566   3.08024148  -2.57100831
H   -0.14928206   1.34201572  -2.72943613
H    0.90886790   2.06261615  -1.54026922
C   -1.17048354   2.11035144  -1.00263617
N   -2.01735994   2.07935514  -0.23028188
