18
Energy:   -141.32230071
O    1.59143835   0.25160332   1.91067444
H    2.11864754  -0.02388193   2.66060124
H    1.11190392  -0.53550417   1.65233283
O   -0.07887336   2.02583209   0.70797526
H    0.57203085   1.48327774   1.15316099
H    0.29334142   2.90758094   0.72236197
O   -1.80838348  -0.04310007   0.15098577
H   -2.58946290   0.11980818   0.67976521
H   -1.25977908   0.72904411   0.28903801
O    0.08065864  -1.83844597   1.04314931
H   -0.66956044  -1.32004072   0.75218680
H    0.48556705  -2.14992885   0.23366834
C   -0.18282677   0.06786761  -2.87093671
H   -0.04536682   0.94248730  -2.27006622
H   -1.22880415  -0.13060112  -2.97789731
H    0.25062859   0.22657713  -3.83624848
C    0.50090869  -1.13370952  -2.19246915
N    1.00998082  -2.02833831  -1.68731922
