18
Energy:   -142.09767861
O   -0.30903472   1.86219146   0.20646574
H   -0.41202625   2.73657695  -0.16913327
H    0.16760045   1.36885115  -0.46111654
O   -2.44426372   0.15979567   0.19269740
H   -2.71273473   0.00657005   1.09860969
H   -1.74655323   0.81202114   0.25621011
O    0.87122532   0.28300682  -1.67293353
H    1.15318686   0.22927341  -2.58608316
H    0.25790378  -0.44434930  -1.56794965
O   -0.92894790  -1.66061575  -1.18577521
H   -1.60298541  -1.10372502  -0.79618825
H   -0.52534900  -2.10583943  -0.44071437
C    2.15107226  -0.05607402   1.67575545
H    1.57769876   0.75443776   2.07477134
H    2.59810649   0.24445531   0.75123308
H    2.91778801  -0.32692231   2.37123173
C    1.22940719  -1.26532574   1.43112557
N    0.54318565  -2.16566861   1.24898751
