18
Energy:   -141.25807333
O    0.26805689   2.01446348  -0.08811166
H   -0.60998368   2.01732687  -0.46925260
H    0.72110016   1.29909393  -0.53446360
O    0.24501993   0.91928550   2.39005170
H    0.22683588   1.39905799   1.56196985
H    0.27014489   1.60077401   3.06174657
O    1.38465435  -0.26429896  -1.15128378
H    1.28884913  -0.76489979  -0.34106652
H    2.32059647  -0.30309495  -1.34810620
O    0.99679442  -1.45163176   1.28550745
H    0.72490750  -0.66922060   1.76523876
H    1.01143892  -2.14479273   1.94546598
C   -1.88863907  -1.32020911  -1.88241742
H   -0.99595098  -1.43328496  -2.46140103
H   -2.72529441  -1.68244664  -2.44249857
H   -1.79816586  -1.87928466  -0.97459132
C   -2.09949849   0.16854032  -1.54960601
N   -2.25649291   1.27698194  -1.30181279
