18
Energy:   -142.73959433
O   -0.61450404  -0.68335356   1.79236461
H   -1.07545622  -0.92864631   0.99012624
H   -1.06730192  -1.16347722   2.48568070
O   -1.68897241  -1.39872165  -0.59660798
H   -0.89303707  -1.31219139  -1.12123291
H   -2.38936284  -1.50940849  -1.23959593
O    1.80395586  -0.51048619   0.53719188
H    1.00361047  -0.55731133   1.06015125
H    2.41916874  -1.08913247   0.98765103
O    0.62657034  -0.94333640  -1.91040293
H    1.16970470  -0.83801445  -1.12928565
H    0.48294807  -0.05078329  -2.22497157
C    0.04250253   2.56341796   0.59581296
H    0.97095376   2.24790276   1.02398190
H   -0.76709768   2.09159231   1.11236609
H   -0.04852177   3.62582230   0.68475499
C    0.00245278   2.16753147  -0.89189330
N   -0.02736608   1.87277598  -1.99955823
