18
Energy:   -142.57669057
O   -0.44563768  -0.56645920   1.83113613
H   -1.03129451  -0.78049119   1.10489359
H   -0.83815499  -0.99670369   2.59077531
O   -1.92779703  -1.15836647  -0.34674884
H   -2.36347004  -0.42633005  -0.78326180
H   -1.19490590  -1.37880151  -0.92164956
O    1.81955030  -0.64402804   0.31301784
H    1.08328725  -0.60696647   0.92357087
H    2.43004417  -1.26484687   0.71065216
O    0.30718177  -1.25153262  -1.89734678
H    0.94607421  -1.09046860  -1.20300775
H    0.07270355  -0.37945395  -2.21472761
C    0.48555472   2.56499769   0.40485888
H    1.50780635   2.24903045   0.41301362
H    0.00546849   2.24283556   1.30520762
H    0.44259468   3.63216116   0.33993079
C   -0.23292909   1.94750819  -0.80926127
N   -0.76787295   1.48775919  -1.71322891
