15
Energy:   -141.91183134
O    1.16681757   1.07029466  -0.49555593
H    0.22583792   1.19913054  -0.37643215
H    1.53275863   1.14513095   0.38576042
O    1.04480672   1.10501922   2.28371021
H    0.84175386   0.59545221   3.06814813
H    0.19137231   1.37961846   1.94833460
O   -1.47515572   1.03388219   0.24785625
H   -1.59373010   0.11772452  -0.00279705
H   -2.24957056   1.47898832  -0.09622812
O   -1.50027381  -1.59637363  -0.60327546
H   -0.59799388  -1.61945978  -0.92200703
H   -1.81689663  -2.49288746  -0.71393163
O    1.09997947  -1.44672952  -1.45438113
H    1.17215263  -0.55019453  -1.12689387
H    1.77456982  -1.51029308  -2.13048717
