15
Energy:   -141.79791555
O   -1.12806225   0.62541658  -1.14549764
H   -1.52737988   0.44562082  -0.29435091
H   -1.50961041   1.45988043  -1.41811997
O    0.65488223   0.45295187   2.19561571
H    1.35121510   0.80399242   2.75070393
H    1.04871600   0.39369927   1.32520435
O    1.49809458   0.42192878  -0.39506555
H    0.61796236   0.64693020  -0.69668367
H    1.69089873  -0.41400390  -0.81965353
O    1.09892811  -1.84527433  -1.98191063
H    0.20507331  -1.50614166  -1.93453477
H    1.39338658  -1.62313866  -2.86518964
O   -1.98059667   0.24782113   1.43352273
H   -2.38888119  -0.41617553   1.98908014
H   -1.10284772   0.35954568   1.79863402
