15
Energy:   -141.97853698
O   -1.06235323  -0.35027021   1.86022899
H   -1.63050551  -0.91040137   2.38908428
H   -0.79892539  -0.90243083   1.12405219
O   -0.39183076  -1.71001299  -0.44402261
H    0.54947033  -1.87985894  -0.40746513
H   -0.47082998  -0.90575436  -0.95701289
O   -0.03921986   0.78896876  -1.64447044
H   -0.23481719   1.31629869  -0.86994047
H   -0.66143599   1.09306521  -2.30523083
O   -0.78078458   2.09191044   0.66837397
H   -0.94146877   1.30132425   1.18353018
H   -0.67721497   2.78576159   1.31958496
O    2.35471871  -1.22331484  -0.61214905
H    2.73617040  -0.65534688   0.05728269
H    2.00505233  -0.62002930  -1.26790192
