15
Energy:   -141.89432413
O   -0.52336293   0.88164438  -2.16708430
H   -1.19879488   1.51455070  -2.41091441
H    0.05325329   1.36272111  -1.57352658
O    1.02657940  -0.19453106   1.29850611
H    0.23578202  -0.28466466   1.83024597
H    0.84121570  -0.69761615   0.50555117
O   -1.49300950  -1.15017720   2.08059502
H   -1.29541585  -1.44946260   1.19311722
H   -1.59440610  -1.95524320   2.58835412
O   -0.01710312  -1.48956430  -0.88106993
H    0.49104132  -2.03509020  -1.48142197
H   -0.27211097  -0.72987353  -1.40458954
O    1.02716865   2.09461871  -0.20350175
H    1.04612682   1.34555726   0.39213185
H    1.66196612   2.70959519   0.16401416
