15
Energy:   -142.37272608
O   -1.60551110   0.47432394  -0.77603629
H   -0.93520301   0.00381189  -1.27155351
H   -2.00545203   1.06498137  -1.41431749
O    0.33850713   1.05039342   1.13389668
H   -0.10964258   0.54068028   1.80886794
H   -0.30252706   1.12915609   0.42742413
O    0.53808760  -0.71458422  -1.98922971
H    1.25549514  -0.50546184  -1.39104403
H    0.97101053  -0.95549951  -2.80823484
O   -1.52709692  -0.72169173   2.08244187
H   -2.43367784  -0.65653168   2.38260356
H   -1.59245225  -0.76105634   1.12828729
O    2.44648848  -0.01469590  -0.20568007
H    3.06509893  -0.39553018   0.41763222
H    1.79286385   0.42143485   0.34094289
