15
Energy:   -142.64825282
O   -0.60277382   0.57289085   1.43220335
H   -0.98980082   0.18120387   0.64924534
H   -0.30845729   1.43802103   1.14731846
O    1.03145359  -1.54615014  -1.16443249
H    1.17591619  -1.58155132  -0.21885904
H    1.78498927  -1.06363797  -1.50442932
O    1.29380622  -1.38063499   1.55052020
H    1.27405981  -1.84242026   2.38873037
H    0.67460504  -0.65887133   1.65951084
O   -1.33261139  -0.24945916  -1.09569502
H   -2.04102895  -0.80206571  -1.42585014
H   -0.54011349  -0.76900995  -1.23077243
O   -0.25081062   2.60245618  -0.47449040
H   -0.85441677   3.26224520  -0.81591375
H   -0.39075444   1.83747368  -1.03256687
