15
Energy:   -142.14721745
O   -0.63920239   1.64573046  -2.22062453
H   -0.10664084   1.87945786  -2.98087550
H   -0.41001282   0.73448026  -2.03806750
O   -0.69290294   0.19299578   2.14935701
H   -0.22665062   0.77061320   1.54504025
H   -0.69354558   0.66628181   2.98136168
O    0.91429126  -0.91376980  -1.08722726
H    1.77797655  -1.32555035  -1.11399191
H    0.41611741  -1.44137484  -0.46297763
O   -0.45949824  -2.22515416   0.88508751
H   -1.21559933  -2.76210149   1.12221735
H   -0.56846343  -1.42024255   1.39152184
O    0.78124717   1.49613434   0.28505287
H    0.97420083   0.65498692  -0.12903860
H    0.20114043   1.94051913  -0.33319479
