15
Energy:   -141.77850904
O   -1.35652691  -0.76073693  -0.86985940
H   -1.43071359  -0.81178733   0.08309497
H   -1.94100290  -1.44637879  -1.19314705
O    1.56631233  -0.04203364   1.64280789
H    2.47370333  -0.21641879   1.89273435
H    1.56871785  -0.08282294   0.68648039
O    1.37983115  -0.18425763  -1.03763706
H    1.22344247   0.69183688  -1.39010383
H    0.51518578  -0.59460184  -1.02221378
O   -0.21062678   2.01204059  -1.86919171
H   -0.60827767   2.51519720  -1.15860109
H   -0.76488527   1.23617838  -1.95325831
O   -1.04265656  -0.98077004   1.83282554
H   -0.12913146  -0.69748778   1.87096879
H   -1.42703034  -0.66211637   2.64949468
