15
Energy:   -145.40129638
O   -0.90220975   0.60790134  -1.38365854
H   -1.45341163   0.69098504  -0.60551624
H   -0.77556271  -0.33507587  -1.48847437
O    1.16864928   1.37809784   0.13434463
H    0.54349875   1.15291422  -0.55464812
H    1.82262020   1.92281269  -0.30365036
O   -1.29554234   1.10165747   1.40401982
H   -0.40876703   1.36714647   1.16034589
H   -1.67516374   1.87952381   1.81272924
O   -0.21715880  -2.04771658  -1.27665641
H    0.30964233  -1.87063384  -0.49732714
H    0.18327746  -2.82538338  -1.66539410
O    1.11407697  -1.27601466   0.97539131
H    1.27844905  -0.35366436   0.77921896
H    0.37978289  -1.26363898   1.58930571
