15
Energy:   -148.98860578
O    1.40744060  -0.88411489  -0.67056910
H    1.66003801   0.03349043  -0.56845708
H    1.15989700  -1.16436841   0.21057333
O   -1.22183126  -0.74270452  -1.25231263
H   -1.45990928  -0.97987812  -2.14858234
H   -0.26566063  -0.78498122  -1.23881282
O   -0.95325566   1.35266307   0.66235623
H   -1.27111703   0.92837253  -0.13462152
H   -0.80722476   0.63248700   1.27575110
O    1.59388231   1.80800029  -0.14967146
H    1.88365675   2.70311535   0.02648656
H    0.69208238   1.78038388   0.17005666
O   -0.56363173  -1.36265983   1.40004395
H   -0.99820567  -2.07090589   1.87519114
H   -0.99955908  -1.34237673   0.54811215
