15
Energy:   -141.91801172
O    0.85566990   0.81387600  -2.01562879
H    1.11206696   1.67619141  -2.34259136
H   -0.07670796   0.90004797  -1.81693867
O    1.36382062  -1.16406156  -0.23122421
H    1.27137371  -0.44770929  -0.85933633
H    1.55435639  -1.93221794  -0.76961417
O    0.54511216   0.18233270   2.76102246
H    1.18606599   0.10215864   2.05463577
H    0.72247148  -0.56517562   3.33199254
O   -1.76849477   0.97967056  -1.19627177
H   -2.71585656   1.07741626  -1.29210115
H   -1.66238858   0.38906954  -0.45050789
O   -1.13804666  -0.73950358   0.80210077
H   -0.83758069  -0.27241910   1.58170588
H   -0.33435475  -1.03916396   0.37723040
