120
doi: 10.1063/1.4973380 MP2:-2311.00235 Eh; MP2-MBE:-2310.93744 Eh; MP2-NN:-2310.93545 Eh
O     0.00000     0.00000     0.00000
H    -0.70026    -0.62915     0.08934
C     0.87795    -0.23893     1.03079
H     0.96587     0.71823     1.57400
H     1.83718    -0.60676     0.66456
H     0.51217    -0.96426     1.73689
O    -0.06035     0.56475    -2.81895
H     0.70797     0.36886    -2.25150
C     0.06442     0.06828    -4.17230
H    -0.22157     0.82343    -4.88087
H    -0.45937    -0.83062    -4.26167
H     1.08328    -0.05448    -4.38688
O     2.46367     0.91143    -1.54141
H     2.59184     1.52422    -0.81681
C     3.74316     0.71087    -2.12348
H     3.91345    -0.32039    -2.44765
H     4.52249     0.93691    -1.41818
H     3.81779     1.34702    -2.96013
O    -2.40288    -1.52942     1.20564
H    -3.30698    -1.72491     1.47573
C    -1.65305    -2.74377     0.92907
H    -1.25423    -2.74311    -0.12878
H    -2.23744    -3.58761     1.18255
H    -0.82780    -2.71281     1.61620
O     0.42434     3.18557    -1.22194
H     0.46382     2.20641    -1.29442
C    -0.35287     3.63661    -2.29379
H    -0.16445     4.73324    -2.45022
H    -1.37221     3.48393    -2.09897
H    -0.06745     3.07005    -3.21746
O     1.61028    -3.65187    -0.05200
H     1.97956    -3.22991     0.72906
C     2.12687    -5.01135     0.11770
H     1.85357    -5.60852    -0.72304
H     1.71363    -5.49896     0.98146
H     3.18811    -4.94999     0.20772
O     3.27456     2.30660     0.51753
H     2.64408     2.79221     1.03863
C     4.59747     2.71169     0.84951
H     5.24712     1.84856     0.73763
H     4.55988     2.92584     1.96368
H     4.92955     3.53454     0.24336
O     3.35886    -2.83115     2.12140
H     4.09135    -2.85273     1.51410
C     3.64112    -3.74747     3.18137
H     2.97751    -3.53500     4.06722
H     4.68658    -3.63510     3.40105
H     3.43340    -4.74023     2.73836
O     1.77366     3.75697     2.80020
H     0.89853     4.09828     2.99334
C     2.18038     3.06208     3.96642
H     3.23277     2.89807     3.88316
H     1.69124     2.09080     4.01213
H     1.95663     3.60461     4.86012
O    -1.06780     3.68315     3.32112
H    -1.59032     3.54886     4.12394
C    -1.13055     2.51711     2.53616
H    -0.38158     2.55847     1.77654
H    -2.14000     2.43249     2.14582
H    -0.99357     1.63689     3.13392
O    -5.34865    -0.18487    -1.04645
H    -5.94109    -0.48059    -1.75193
C    -4.01671    -0.11340    -1.57191
H    -3.58784     0.91097    -1.54296
H    -4.00308    -0.54562    -2.60872
H    -3.38310    -0.69612    -0.97093
O    -4.88485     2.45165     0.38867
H    -5.25571     1.58858     0.05233
C    -4.83859     2.40755     1.83096
H    -4.29217     3.26154     2.18968
H    -4.38912     1.55499     2.16839
H    -5.80945     2.54295     2.27999
O     4.55985    -3.57420    -1.04349
H     3.98028    -3.09771    -1.68522
C     5.56734    -4.21736    -1.78216
H     5.57481    -5.26052    -1.50495
H     6.50686    -3.80251    -1.63918
H     5.33424    -4.16160    -2.85981
O    -5.53251    -1.35891     2.24354
H    -5.06775    -0.88621     2.96671
C    -6.81166    -0.88483     2.08686
H    -7.25582    -1.29515     1.18648
H    -6.76939     0.18756     1.89345
H    -7.50596    -1.06673     2.97712
O     0.49110    -3.86406    -4.82053
H     0.71858    -4.77263    -5.13018
C     1.27571    -3.67312    -3.66262
H     0.91973    -2.75942    -3.13880
H     2.33220    -3.48045    -3.87518
H     1.19258    -4.53421    -3.01336
O    -3.23254    -4.38856     3.54974
H    -2.52221    -4.27823     4.16290
C    -4.45456    -3.80205     4.07156
H    -5.23569    -3.85019     3.29487
H    -4.32213    -2.76367     4.40718
H    -4.79870    -4.40263     4.93148
O     4.39395    -1.42184    -4.58371
H     4.96533    -0.66967    -4.71322
C     4.79628    -2.43774    -5.53720
H     4.05672    -3.20395    -5.61193
H     5.75423    -2.91750    -5.30194
H     4.91111    -2.04224    -6.59227
O     1.48364     2.91588    -5.64069
H     1.66526     2.95710    -6.56610
C     2.70374     3.06249    -4.97228
H     2.47881     2.99289    -3.86750
H     3.14857     3.96453    -5.27959
H     3.32506     2.23489    -5.19224
O    -0.10263    -1.82536     6.26336
H    -0.79842    -1.24448     6.53210
C     1.05975    -1.06818     6.12096
H     1.90808    -1.70204     6.13543
H     1.10695    -0.38772     6.92973
H     0.97811    -0.53493     5.19361
O     2.65820     6.27521     0.22395
H     2.60320     5.67178     0.97515
C     2.95969     5.57264    -1.05781
H     3.45886     6.23779    -1.72474
H     2.04146     5.23085    -1.57475
H     3.55468     4.68447    -0.84680
