90
Energy:   -421.60805296
    C     -2.57077375     -4.40592499      0.39648030
    H     -3.57183389     -4.34948691      0.77010245
    H     -2.03893299     -3.51737952      0.66579692
    H     -2.07977091     -5.25745294      0.81922780
    C     -2.60212570     -4.54043142     -1.13731404
    N     -2.62546865     -4.64057757     -2.27929365
    C      4.51709013      1.91244612     -3.83665675
    H      3.70603598      2.56180335     -4.09244290
    H      4.31510363      0.92787339     -4.20369499
    H      5.42034735      2.27917697     -4.27771681
    C      4.67509647      1.86708753     -2.30545572
    N      4.79273937      1.83331599     -1.16540695
    C     -0.25812993      3.42666907      2.98815416
    H      0.05747602      3.85876088      3.91475534
    H     -0.68509941      4.18645730      2.36741429
    H      0.58445052      2.99237595      2.49182084
    C     -1.31053755      2.33630828      3.26229199
    N     -2.09410287      1.52448511      3.46640005
    C     -1.33164637     -0.22464405      0.21854823
    H     -2.12701412      0.36014893      0.63123152
    H     -1.57368724     -1.26374055      0.29975022
    H     -1.19844659      0.03107928     -0.81187037
    C     -0.03025926      0.06116350      0.99075651
    N      0.93868260      0.27396021      1.56570068
    C      0.38789634     -3.10353895     -3.52327352
    H      1.29836486     -3.54627510     -3.86958545
    H      0.29004084     -2.12076561     -3.93495296
    H     -0.44139678     -3.70435483     -3.83342233
    C      0.41190327     -3.01606289     -1.98594740
    N      0.42977751     -2.95093299     -0.84133822
    C      4.15303159      1.35275916      2.15295579
    H      5.13250479      1.54960185      1.76982997
    H      3.92009124      2.06309637      2.91850064
    H      3.43753020      1.43382546      1.36151084
    C      4.10836942     -0.06957917      2.74164838
    N      4.07511641     -1.12857471      3.17995678
    C     -4.63051569      2.14599882      1.25978066
    H     -4.46569948      1.25255496      1.82501854
    H     -5.57594886      2.56882317      1.52862036
    H     -3.85236541      2.84969422      1.47000440
    C     -4.62696549      1.81054318     -0.24323528
    N     -4.62432221      1.56078121     -1.36229897
    C      1.93822958      3.56234911     -0.25476170
    H      2.95616528      3.69763142      0.04591386
    H      1.63448336      2.55826572     -0.04392081
    H      1.31369695      4.24437808      0.28347111
    C      1.80919051      3.83116178     -1.76561864
    N      1.71311506      4.03130504     -2.89052030
    C      3.56660683     -1.37945017     -0.64151981
    H      4.44432983     -0.85714374     -0.32261776
    H      3.56178106     -2.36144972     -0.21660491
    H      2.69706582     -0.84649749     -0.31785493
    C      3.56177640     -1.48488935     -2.17789843
    N      3.55817992     -1.56339361     -3.32180214
    C      0.87557057     -0.45664998      4.91147871
    H      0.07150495     -0.46116301      4.20553375
    H      0.49652257     -0.68671067      5.88528249
    H      1.60213555     -1.18967716      4.62921365
    C      1.53266049      0.93597450      4.93221300
    N      2.02189380      1.97284672      4.94765062
    C      1.72821196     -3.27888338      2.16243630
    H      2.00617465     -2.34701750      1.71604757
    H      1.79152074     -4.05754470      1.43128813
    H      2.39034984     -3.49710270      2.97413380
    C      0.28404999     -3.18531056      2.68897248
    N     -0.79119423     -3.11564134      3.08100260
    C      0.98219169      0.72751074     -4.75552249
    H      1.72899253      0.07125240     -5.15114058
    H      1.16489812      1.72418157     -5.09927342
    H      0.01571684      0.40803127     -5.08530777
    C      1.03539745      0.69738278     -3.21673678
    N      1.07501156      0.67495114     -2.07104088
    C     -1.78230092      2.91039429     -2.77132538
    H     -1.65241587      1.87303658     -2.99918289
    H     -1.05460072      3.48637225     -3.30386729
    H     -2.76444162      3.21930458     -3.06265535
    C     -1.60303383      3.12983670     -1.25761855
    N     -1.46956134      3.29322155     -0.13059502
    C     -3.49333341     -1.47855182      4.02411761
    H     -4.13797006     -0.81078825      4.55650430
    H     -2.48221773     -1.13775485      4.10412766
    H     -3.57296735     -2.46026540      4.44220370
    C     -3.90617664     -1.51719144      2.54099002
    N     -4.21355719     -1.54596040      1.43673412
    C     -4.26874905     -1.59224616     -2.35283710
    H     -4.49744833     -2.57248033     -2.71579412
    H     -5.07637433     -0.92921776     -2.58312785
    H     -4.12806707     -1.62826831     -1.29273801
    C     -2.97969098     -1.08386113     -3.02475520
    N     -2.01992865     -0.70534536     -3.52502876
