90
Energy:   -420.76293940
    C     -1.13370126     -4.44272885     -3.40758364
    H     -1.75698512     -3.73549290     -3.91377996
    H     -0.88547045     -5.24132048     -4.07506545
    H     -0.23691500     -3.95862883     -3.08151513
    C     -1.88460839     -5.00798813     -2.18765724
    N     -2.44369289     -5.42884935     -1.27936658
    C      3.84824533      2.96883448     -0.58779213
    H      4.75181111      2.40065525     -0.51268279
    H      3.06455073      2.46359769     -0.06295152
    H      3.99895205      3.93701084     -0.15788387
    C      3.45881470      3.12030120     -2.07002073
    N      3.16886589      3.23307505     -3.17360730
    C      0.26840783      0.34350157      1.34216115
    H      0.78530324     -0.51455149      0.96604381
    H     -0.03416903      0.16312003      2.35251200
    H      0.91782951      1.19329986      1.31064226
    C     -0.97473462      0.61499734      0.47470114
    N     -1.90031069      0.81713829     -0.17116227
    C     -0.18994706     -0.49143507     -3.11613313
    H     -0.35338116     -1.53737785     -2.96059160
    H      0.06332164     -0.31858408     -4.14125585
    H     -1.08092545      0.04882958     -2.87288285
    C      0.96310319     -0.01241192     -2.21468320
    N      1.82160150      0.34424259     -1.54351276
    C      3.15442692     -2.91220566     -0.68074440
    H      4.17706189     -2.59919535     -0.64694429
    H      3.06270055     -3.88003233     -0.23375793
    H      2.54925487     -2.21232187     -0.14331668
    C      2.68560897     -2.97706921     -2.14621444
    N      2.33655269     -3.02536306     -3.23732350
    C      0.98890288      3.88937500      3.54161739
    H      1.60730667      3.88992982      4.41481646
    H      0.61042447      4.87571961      3.37197806
    H      1.56610534      3.57850294      2.69598451
    C     -0.18715250      2.91639920      3.74609687
    N     -1.06277918      2.19197449      3.89834114
    C     -4.63106883      1.44795089     -2.32045397
    H     -3.56527948      1.36078692     -2.35781281
    H     -4.91956883      2.43099638     -2.62914220
    H     -5.07121632      0.72500628     -2.97506864
    C     -5.11630196      1.19905059     -0.88024654
    N     -5.47758008      1.01373300      0.19205336
    C     -0.36751772      3.35439491     -2.35099155
    H      0.44067491      2.99149181     -2.95101339
    H     -0.72047640      4.28180303     -2.75128324
    H     -1.16309568      2.63889027     -2.35380355
    C      0.12232412      3.57172186     -0.90723812
    N      0.48703363      3.73353165      0.16770193
    C      4.30400634     -0.14578616      1.42205511
    H      3.72930906     -0.09976127      0.52066456
    H      4.39453479     -1.16477385      1.73569151
    H      5.27781825      0.26085633      1.24533123
    C      3.59928506      0.66929318      2.52233398
    N      3.07458803      1.27615680      3.34154161
    C     -3.14176398      3.72163291      1.36907766
    H     -3.07346605      4.60602374      1.96748257
    H     -2.26523622      3.12506331      1.51296270
    H     -4.00610718      3.16114641      1.65832635
    C     -3.25759879      4.11406776     -0.11556949
    N     -3.34384307      4.40625334     -1.22095679
    C     -3.75461355      0.26517848      3.06877588
    H     -3.64211081      0.92111666      3.90662337
    H     -4.74291382     -0.14489298      3.06702601
    H     -3.59386585      0.81227917      2.16338088
    C     -2.72547448     -0.87610387      3.16851249
    N     -1.95923366     -1.72584045      3.24277092
    C      4.21131293     -0.05778185     -4.16164283
    H      4.81726839     -0.57585822     -4.87530595
    H      4.10191786      0.96358191     -4.46122234
    H      3.24745706     -0.51954049     -4.11006856
    C      4.88387032     -0.11755230     -2.77755684
    N      5.38461987     -0.16205412     -1.74704190
    C     -3.70304687     -2.21373659     -0.13899188
    H     -2.87767340     -1.82107406      0.41731284
    H     -3.76928557     -3.26996314      0.01879596
    H     -4.60833374     -1.74672247      0.18850252
    C     -3.49269672     -1.93085116     -1.63810117
    N     -3.33608148     -1.72023011     -2.75425617
    C      1.01493735     -1.19676434      4.89303088
    H      0.22909758     -0.54698931      4.56876485
    H      1.77906715     -0.62092726      5.37200519
    H      0.62276739     -1.91366934      5.58379063
    C      1.61061610     -1.92892359      3.67618674
    N      2.05412601     -2.47404943      2.77019097
    C     -0.52103027     -4.49000936      1.58171866
    H      0.42792780     -4.68119068      2.03760074
    H     -0.90127275     -5.39525660      1.15646323
    H     -1.20520659     -4.12811384      2.32052410
    C     -0.35485282     -3.43282899      0.47430964
    N     -0.23112616     -2.64571016     -0.35020671
