90
Energy:   -420.70774009
    C     -2.35349553     -4.47314064      1.04833907
    H     -2.76188509     -3.55766285      1.42252963
    H     -1.34291370     -4.57655101      1.38438929
    H     -2.93491030     -5.29631577      1.40783687
    C     -2.38339965     -4.45715382     -0.49128756
    N     -2.40566463     -4.44525090     -1.63760957
    C      3.62388846     -1.25769050      0.11423469
    H      2.56006414     -1.17228211      0.19093804
    H      4.01712376     -1.64950598      1.02897275
    H      3.87162655     -1.91651288     -0.69166729
    C      4.23247879      0.13152087     -0.15280385
    N      4.68560195      1.16585188     -0.35162618
    C     -0.62849495      3.87059006      2.00637140
    H     -1.01071407      4.38603005      1.15014109
    H      0.28156807      3.37189476      1.74562748
    H     -0.43804085      4.57355964      2.79024645
    C     -1.66230896      2.83473767      2.48578608
    N     -2.43203048      2.06349849      2.84273209
    C     -1.11583829     -0.60276261      0.22143614
    H     -1.93363814      0.07530001      0.09362898
    H     -1.44729569     -1.46296833      0.76464990
    H     -0.75034318     -0.90553231     -0.73754401
    C      0.01219531      0.09515059      1.00377709
    N      0.85206760      0.61477868      1.58626549
    C      0.86448747     -3.50077614     -2.67978364
    H      1.77393785     -3.07931123     -3.05417318
    H      0.03256874     -2.93571350     -3.04518004
    H      0.77914063     -4.51508971     -3.00960631
    C      0.87573554     -3.46078498     -1.14034407
    N      0.88411024     -3.43100974      0.00583867
    C      3.71484091      2.35204890      2.73467903
    H      4.59210897      2.50777041      2.14218282
    H      3.70006755      3.05462160      3.54156963
    H      2.84497770      2.48873580      2.12676968
    C      3.72544609      0.92001734      3.30104740
    N      3.73334213     -0.14619525      3.72273439
    C     -4.62434551      1.92201804      0.10989925
    H     -3.67488678      1.57453130      0.46015810
    H     -5.40445362      1.35115414      0.56864193
    H     -4.74183567      2.95487264      0.36348657
    C     -4.69898595      1.75721763     -1.41943708
    N     -4.75455914      1.63451624     -2.55809750
    C      2.05072156      3.20988312     -0.84518188
    H      3.03076970      3.45602166     -0.49329888
    H      1.77420755      2.24193637     -0.48252751
    H      1.35103231      3.93720477     -0.48974235
    C      2.04518780      3.20194786     -2.38515149
    N      2.04106767      3.19603971     -3.53172887
    C      5.05710733      0.83004193     -3.68161792
    H      5.31416913      1.07570233     -4.69081086
    H      5.91745058      0.94594933     -3.05609889
    H      4.27935752      1.48213824     -3.34283373
    C      4.56825680     -0.62887925     -3.61701018
    N      4.20428536     -1.71511238     -3.56890677
    C      0.24700624      0.56233490      4.97333532
    H     -0.43588408      0.36009259      4.17479976
    H     -0.24784045      0.41800448      5.91098908
    H      1.08264154     -0.10245350      4.90500427
    C      0.73937786      2.01794147      4.87145457
    N      1.10597091      3.10170673      4.79559972
    C      1.65242328     -2.72561829      3.13741516
    H      2.00549917     -1.93078957      2.51412959
    H      1.87102307     -3.66546413      2.67502677
    H      2.13816588     -2.67496939      4.08945923
    C      0.13052871     -2.58979835      3.32974266
    N     -1.00259097     -2.48867423      3.47293923
    C      1.08188668     -0.07596831     -4.76979948
    H      1.25618164      0.90343808     -5.16386111
    H      0.08781745     -0.38717509     -5.01449478
    H      1.78500145     -0.76163768     -5.19451849
    C      1.24978948     -0.05082487     -3.23918638
    N      1.37480074     -0.03210443     -2.09957535
    C     -1.54197030      2.48021354     -3.69792822
    H     -1.47394027      1.45473108     -3.99568288
    H     -0.74824694      3.03659377     -4.15107651
    H     -2.48304197      2.88109655     -4.01189639
    C     -1.42781104      2.57839838     -2.16530714
    N     -1.34281429      2.65150146     -1.02420107
    C     -3.84551125     -0.76213196      3.86202695
    H     -4.50159652      0.01669028      4.19049036
    H     -2.82991133     -0.45015852      3.98902484
    H     -4.02238483     -1.64496419      4.44014639
    C     -4.10837833     -1.06144440      2.37444066
    N     -4.30409481     -1.28429612      1.26686505
    C     -4.35842846     -1.79036798     -2.44500191
    H     -4.52094670     -2.81904851     -2.69057137
    H     -5.10057467     -1.18747769     -2.92525329
    H     -4.42577228     -1.66180740     -1.38489056
    C     -2.95946065     -1.36257869     -2.92613122
    N     -1.91786554     -1.04407012     -3.28435386
