90
Energy:   -420.26233728
    C     -1.16700414     -4.47601428     -3.40408289
    H     -1.38962237     -3.46612359     -3.67878656
    H     -1.32339038     -5.11742982     -4.24612122
    H     -0.14663092     -4.54330424     -3.08910728
    C     -2.09009735     -4.90949659     -2.25013661
    N     -2.77738219     -5.23224387     -1.39097115
    C      3.70370614      2.48018536     -0.25000403
    H      3.49606162      3.50448126     -0.02065315
    H      4.75597785      2.30316499     -0.17071261
    H      3.18279641      1.84788798      0.43829255
    C      3.23779416      2.17077695     -1.68485331
    N      2.89090151      1.94040833     -2.75316382
    C      0.17604342      0.43249858      1.13027895
    H      0.98256267      1.10879239      0.93778593
    H      0.50185161     -0.57102168      0.95224749
    H     -0.13632601      0.53065820      2.14894922
    C     -1.00408528      0.76218418      0.19743188
    N     -1.88274474      1.00765009     -0.49711517
    C      0.40013238     -0.47978177     -2.85820650
    H     -0.56072227     -0.79862551     -2.51180039
    H      0.28165265      0.12057850     -3.73594745
    H      0.88161235      0.09528483     -2.09507181
    C      1.26059736     -1.71262334     -3.19182556
    N      1.90125265     -2.63052993     -3.44022013
    C      2.84384001     -3.55327486     -0.13887660
    H      3.82663028     -3.93752240     -0.31601294
    H      2.17618339     -3.92172601     -0.88946136
    H      2.50566649     -3.86969083      0.82570554
    C      2.87700023     -2.01454622     -0.19192902
    N      2.90168952     -0.86889280     -0.23142896
    C      1.04563533      4.03240524      2.96691289
    H      1.62319296      4.11699835      3.86366892
    H      0.79256313      5.00964373      2.61214750
    H      1.61696789      3.51933223      2.22177245
    C     -0.24367523      3.24260168      3.25929727
    N     -1.20362554      2.65455703      3.47699074
    C     -4.41622799      1.72500548     -2.87156881
    H     -3.36467110      1.53176524     -2.82930190
    H     -4.58204566      2.71879892     -3.23181621
    H     -4.88144524      1.02379508     -3.53245911
    C     -5.02146635      1.58202584     -1.46272413
    N     -5.47209383      1.47557100     -0.41377522
    C     -0.36476150      3.30959925     -2.82951164
    H      0.48209142      3.08812602     -3.44488951
    H     -0.87546961      4.16493512     -3.21999450
    H     -1.02884518      2.47065679     -2.82129517
    C      0.10722617      3.60476140     -1.39364711
    N      0.45864244      3.82452304     -0.32458070
    C      4.77523923     -0.54778620      2.54081748
    H      4.37420083     -1.53954868      2.56262468
    H      5.58813352     -0.47647345      3.23292762
    H      5.12612777     -0.32655843      1.55449369
    C      3.67745547      0.45857256      2.93287980
    N      2.86010556      1.20785240      3.22478802
    C     -3.10303756      4.10699220      0.81806920
    H     -2.91274245      4.98579273      1.39806712
    H     -2.31037337      3.40359680      0.96577661
    H     -4.02977515      3.66993672      1.12635321
    C     -3.18395494      4.48357380     -0.67298368
    N     -3.24420160      4.76395593     -1.78314032
    C     -3.96745120      0.82504066      2.60220997
    H     -3.82329016      1.51764260      3.40496791
    H     -4.98639804      0.49865223      2.59139171
    H     -3.73605664      1.30270869      1.67313037
    C     -3.04144714     -0.38952012      2.79958928
    N     -2.35199502     -1.29381583      2.94654714
    C      5.00506668     -0.90856124     -3.07721357
    H      5.50998446     -0.56803145     -3.95698495
    H      3.99779954     -0.54760287     -3.08180099
    H      5.00048211     -1.97841511     -3.06016120
    C      5.73467390     -0.37838906     -1.82893845
    N      6.27789963      0.01634822     -0.89954089
    C     -3.87187485     -1.88150405     -0.52577632
    H     -3.08600564     -1.55383808      0.12225515
    H     -4.05275057     -2.92425015     -0.36809427
    H     -4.76310688     -1.32879979     -0.31335563
    C     -3.45990458     -1.64780376     -1.99113112
    N     -3.15317399     -1.47380327     -3.08215437
    C      0.45815858     -0.82984486      4.81086729
    H     -0.53422152     -1.17450897      5.01406320
    H      0.41586241      0.15780588      4.40140896
    H      1.02370486     -0.81550500      5.71908029
    C      1.13335628     -1.77590535      3.80058137
    N      1.63607165     -2.48029038      3.04837759
    C     -1.12424011     -4.29449245      1.68601289
    H     -0.27786271     -4.43231890      2.32597332
    H     -1.43489190     -5.24145408      1.29657968
    H     -1.92603808     -3.85796493      2.24410143
    C     -0.74129411     -3.36148018      0.52220858
    N     -0.45617340     -2.66681013     -0.34429662
