90
Energy:   -419.92473420
    C     -0.61251974     -3.12470854     -4.19174133
    H     -1.46077514     -3.32122830     -4.81362793
    H      0.28353671     -3.23033476     -4.76691524
    H     -0.67474000     -2.12773142     -3.80825163
    C     -0.59176683     -4.12474777     -3.02080544
    N     -0.57631535     -4.86932244     -2.14899044
    C      5.04174138      2.79556437     -0.26121046
    H      4.86467077      1.79456326      0.07277001
    H      4.57323337      3.48390419      0.41079225
    H      6.09504149      2.98223130     -0.28597791
    C      4.45492616      2.97690240     -1.67343014
    N      4.01801555      3.11191681     -2.72489188
    C     -0.67746729      0.26961538      1.01163329
    H     -1.58382217      0.83292304      1.08977084
    H      0.14903464      0.93855440      0.89199112
    H     -0.54068759     -0.31101246      1.89992474
    C     -0.75939938     -0.66823030     -0.20710894
    N     -0.82040155     -1.36649904     -1.11451792
    C      1.16636858      0.84996424     -3.56998785
    H      1.74152514      1.56439404     -4.12106423
    H      0.15191212      1.18368588     -3.50360227
    H      1.19878421     -0.09568134     -4.06959044
    C      1.75197881      0.70243218     -2.15333866
    N      2.18799225      0.59258785     -1.09857894
    C      2.40258710     -2.98929397     -0.83334117
    H      3.37472852     -3.03431043     -0.38857748
    H      1.91703886     -3.93672300     -0.72600884
    H      1.82214681     -2.23383229     -0.34624178
    C      2.53765701     -2.64821383     -2.32900840
    N      2.63822270     -2.39426417     -3.44260064
    C      0.05297695      3.48089644      4.03967128
    H      0.85920869      2.90353314      4.44159438
    H     -0.19726317      4.26689419      4.72120376
    H      0.34914870      3.90270985      3.10198539
    C     -1.17350347      2.57352118      3.82987154
    N     -2.08667389      1.89793906      3.67366610
    C     -3.00448617      0.69280963     -3.12160389
    H     -2.76370120      1.72105368     -3.29375773
    H     -3.69509865      0.35851597     -3.86739290
    H     -2.11232584      0.10426400     -3.17223073
    C     -3.64111591      0.54110529     -1.72758511
    N     -4.11511569      0.42815451     -0.68967476
    C      1.12237904      4.10629293     -0.43408518
    H      1.41417615      4.87584759     -1.11785433
    H      1.93680761      3.42677260     -0.29316920
    H      0.85755622      4.54527806      0.50509532
    C     -0.08861425      3.34489901     -1.00450129
    N     -0.99025381      2.77800663     -1.42920201
    C      3.20327073     -0.27859398      2.12940058
    H      2.93219920     -0.70731158      3.07153731
    H      4.25951042     -0.37165108      1.98588335
    H      2.68992746     -0.79163980      1.34316794
    C      2.81204539      1.21077666      2.11157272
    N      2.52076034      2.31968080      2.09829906
    C     -3.63148202      3.45586881      0.78117317
    H     -3.64441393      3.37486781     -0.28567817
    H     -4.57489294      3.82825905      1.12205502
    H     -3.45251178      2.49199300      1.20990640
    C     -2.51264461      4.42374847      1.20897197
    N     -1.67961931      5.14437888      1.52748762
    C     -4.88379194     -0.05553203      2.57434676
    H     -4.39320860      0.86860308      2.79840582
    H     -5.53538376     -0.31826081      3.38137885
    H     -5.45456546      0.05237026      1.67575132
    C     -3.83057105     -1.16276332      2.38365167
    N     -3.04640022     -1.98714734      2.24167050
    C      5.27418653     -0.25415562     -3.25333237
    H      4.41320618      0.35315698     -3.43983818
    H      5.20622819     -1.15498753     -3.82672807
    H      6.15648635      0.28191688     -3.53453052
    C      5.34131179     -0.60325152     -1.75492447
    N      5.39128959     -0.86316929     -0.63929167
    C     -3.85017229     -3.23596549     -1.02524056
    H     -3.36521122     -4.18475290     -0.92769365
    H     -4.85066439     -3.30680433     -0.65255235
    H     -3.31180490     -2.50087604     -0.46425647
    C     -3.88303962     -2.82644447     -2.50942797
    N     -3.90751084     -2.52153746     -3.61447296
    C     -1.07890445     -1.30709810      5.00351476
    H     -1.16928601     -1.76736853      5.96522287
    H     -1.01338330     -2.06436380      4.25041801
    H     -1.93646225     -0.69423831      4.81940452
    C      0.19112042     -0.43681461      4.96825141
    N      1.13671166      0.21115100      4.94199624
    C     -0.90088313     -4.34331586      1.16016510
    H     -1.70928089     -4.55450976      1.82858891
    H     -0.42116911     -5.25792567      0.88041085
    H     -1.27916540     -3.85689790      0.28540846
    C      0.11662123     -3.42307671      1.85976840
    N      0.87419948     -2.73791683      2.38065486
