90
Energy:   -419.85476634
    C     -1.79476020     -4.88787911      0.81562288
    H     -2.34399280     -5.76714098      1.08046680
    H     -2.26169977     -4.03034954      1.25324094
    H     -0.79142629     -4.97145627      1.17788661
    C     -1.77628267     -4.73631194     -0.71678893
    N     -1.76252530     -4.62346330     -1.85773919
    C      5.30861324      1.95420039     -2.79557377
    H      4.44827622      2.58998979     -2.77338734
    H      5.09356948      1.08330891     -3.37884327
    H      6.13080993      2.48176106     -3.23211864
    C      5.67300969      1.53327788     -1.35973274
    N      5.94431942      1.21988195     -0.29068382
    C     -2.55828471      4.17535331      2.14859808
    H     -2.13338326      4.80842683      2.89931564
    H     -3.28617668      4.72474801      1.58892153
    H     -1.78620028      3.83391659      1.49117456
    C     -3.23343048      2.96489451      2.81984146
    N     -3.73610720      2.06365291      3.31961266
    C     -0.31179026     -1.19809904      0.26938590
    H     -1.01854882     -1.91336479      0.63515555
    H      0.60045856     -1.28332275      0.82205046
    H     -0.11981998     -1.38405767     -0.76669609
    C     -0.88383733      0.22165134      0.43871108
    N     -1.30975237      1.27872003      0.56478136
    C      1.39858789     -3.38149213     -2.83439847
    H      0.51645679     -3.82479306     -3.24698689
    H      2.25800276     -3.74063206     -3.36101379
    H      1.34092976     -2.31729372     -2.92956347
    C      1.51426709     -3.75822800     -1.34567808
    N      1.60039551     -4.03872499     -0.23725808
    C      3.49175962      2.01936763      1.80440759
    H      4.53962071      2.00029331      2.02010065
    H      3.03806598      2.84474923      2.31215396
    H      3.34660487      2.12603982      0.74968003
    C      2.84551586      0.70535734      2.28121569
    N      2.36435801     -0.27298304      2.63622099
    C     -4.75943394      1.64498724     -0.10529379
    H     -4.01421032      1.10342864      0.43900045
    H     -5.73112339      1.36002274      0.24041409
    H     -4.62020695      2.69483030      0.04749518
    C     -4.63387500      1.32357285     -1.60613614
    N     -4.54039067      1.08426523     -2.72358149
    C      0.94531254      4.07706991      0.12846949
    H      1.61706795      4.54754825      0.81570670
    H      0.71291167      3.09173136      0.47487513
    H      0.04565326      4.65210836      0.05887739
    C      1.60780844      3.99045808     -1.25904540
    N      2.10106675      3.92597164     -2.29211331
    C      4.32660215     -1.89673310      0.06285013
    H      4.51067204     -2.91697429      0.32766398
    H      3.35410991     -1.60947810      0.40437977
    H      5.06440060     -1.27092140      0.51991934
    C      4.39946286     -1.74248166     -1.46767194
    N      4.45371098     -1.62763446     -2.60721519
    C     -0.59964930      0.76361698      4.13451748
    H      0.17151743      0.08369215      4.43100405
    H     -1.14503681      0.34812141      3.31304624
    H     -1.26430852      0.92947526      4.95647748
    C      0.03201094      2.10149392      3.70709423
    N      0.50231070      3.09760411      3.38885820
    C      1.66642668     -3.45992365      3.18306998
    H      2.09955601     -3.05152841      2.29396229
    H      1.69818712     -4.52845749      3.13696351
    H      2.21815559     -3.12316171      4.03576318
    C      0.20325313     -2.99450218      3.30183868
    N     -0.88614609     -2.64797473      3.39026738
    C      1.92882710      0.66911597     -3.80563694
    H      0.93967368      0.41854256     -4.12764418
    H      2.62462850     -0.03694581     -4.20842257
    H      2.17783196      1.65124234     -4.14961873
    C      1.99265398      0.63242767     -2.26739766
    N      2.04017599      0.60511156     -1.12210859
    C     -1.29767237      2.46485744     -2.82485397
    H     -0.87563450      1.68759267     -2.22265492
    H     -0.52278236      2.93780257     -3.39121733
    H     -2.02191932      2.04587461     -3.49180137
    C     -1.97798079      3.50587415     -1.91652326
    N     -2.48450132      4.28095841     -1.24022976
    C     -4.05669623     -1.27948993      3.26489255
    H     -4.82105469     -0.54425773      3.40663154
    H     -3.13513278     -0.91894097      3.67186226
    H     -4.33611388     -2.18487376      3.76198911
    C     -3.88080106     -1.55352024      1.75971207
    N     -3.74983911     -1.75754827      0.63903679
    C     -3.55070606     -2.06017929     -3.05579562
    H     -4.21495367     -1.51582669     -3.69403972
    H     -3.91179332     -2.02177313     -2.04929672
    H     -3.50132250     -3.07920341     -3.37836375
    C     -2.14606321     -1.43228218     -3.12155039
    N     -1.10024276     -0.96478425     -3.17050781
