90
Energy:   -419.81574132
    C     -1.02651986     -4.32970039     -3.52300497
    H     -1.72708350     -3.85317709     -4.17648512
    H     -0.49223744     -5.08406537     -4.06186938
    H     -0.33655933     -3.60265007     -3.14850347
    C     -1.78022797     -4.97622620     -2.34592023
    N     -2.34139791     -5.45759404     -1.46952714
    C      4.16202920      2.90647099      0.02266213
    H      4.70510182      3.75134389      0.39166360
    H      4.76340185      2.02659997      0.11793555
    H      3.26187521      2.78624188      0.58849500
    C      3.81043178      3.12988254     -1.45992565
    N      3.54865151      3.29622260     -2.56377964
    C      0.12971083      0.46211392      1.21304904
    H      0.56947885      0.61932748      2.17574742
    H     -0.42391297     -0.45350812      1.21905310
    H     -0.52755805      1.27482746      0.98415295
    C      1.23955586      0.38395511      0.14827902
    N      2.06588594      0.32576232     -0.64449066
    C     -0.27275681     -0.49919037     -3.24880823
    H     -0.91149351     -1.12451954     -3.83692305
    H      0.41634048     -1.10769504     -2.70129926
    H      0.26881880      0.16269182     -3.89185327
    C     -1.12470397      0.32399395     -2.26486025
    N     -1.75901736      0.93689209     -1.53226626
    C      3.10960997     -3.04795909     -0.54868884
    H      2.49966079     -2.37927188      0.02202964
    H      4.13444927     -2.75043708     -0.47068787
    H      2.99738139     -4.04296753     -0.17151242
    C      2.67400284     -3.00650969     -2.02521461
    N      2.34967353     -2.97564873     -3.12455517
    C      1.03501886      3.85570364      3.60404391
    H      1.62006996      3.87461184      4.49973240
    H      0.67862154      4.84162550      3.38994548
    H      1.63870469      3.51027488      2.79093784
    C     -0.16293008      2.90665703      3.79332899
    N     -1.05485752      2.20004868      3.93426033
    C     -4.87851968      1.51833947     -2.78927266
    H     -3.99260667      2.11133546     -2.88100085
    H     -5.71669278      2.06934782     -3.16177064
    H     -4.76451658      0.61701600     -3.35453223
    C     -5.11130914      1.16905979     -1.30758012
    N     -5.28463147      0.90900519     -0.20439268
    C      0.19132683      3.67571193     -2.40296550
    H      0.73920023      2.85042413     -2.80748368
    H      0.53669687      4.58548301     -2.84786459
    H     -0.85033488      3.54926382     -2.61237148
    C      0.40493854      3.73611001     -0.87904880
    N      0.56398217      3.78107913      0.25557645
    C      4.59433186     -0.55936197      1.88644882
    H      4.22935295     -0.63174785      0.88322858
    H      4.54895181     -1.52132766      2.35277677
    H      5.60792497     -0.21678717      1.87338733
    C      3.72612407      0.43628123      2.67797258
    N      3.07970391      1.17758285      3.26729800
    C     -2.88945707      3.15025950      0.97654977
    H     -3.73392386      3.36008142      1.59924615
    H     -1.99883024      3.50454724      1.45211589
    H     -2.81474119      2.09429363      0.82081694
    C     -3.06342836      3.85816601     -0.37999082
    N     -3.19295789      4.38523459     -1.38999694
    C     -4.10405343      0.42522880      3.25520231
    H     -4.76872177      0.14019460      4.04379072
    H     -4.66499785      0.59593077      2.36015969
    H     -3.58877801      1.32192181      3.52966905
    C     -3.08169684     -0.70078786      3.01338942
    N     -2.32050589     -1.53915845      2.83334873
    C      3.96578172      0.06323604     -3.58233650
    H      4.31297804      0.91201964     -4.13362708
    H      2.95922009      0.23352737     -3.26181563
    H      3.99929016     -0.80535840     -4.20629162
    C      4.86654938     -0.15334378     -2.35216952
    N      5.53721185     -0.31459730     -1.43625428
    C     -3.72165322     -2.15534162     -0.41748668
    H     -3.51119584     -3.16491912     -0.13224793
    H     -4.70780203     -1.89216204     -0.09632296
    H     -3.01061881     -1.49976967      0.04028462
    C     -3.62859530     -2.02461990     -1.94910415
    N     -3.55930945     -1.92729164     -3.08946297
    C      0.59179092     -1.01355582      4.72663843
    H      0.26901819     -1.66643899      5.51051439
    H     -0.25575452     -0.51135986      4.30906803
    H      1.27491289     -0.29140396      5.12254265
    C      1.29299048     -1.83603920      3.62962419
    N      1.81506544     -2.44841546      2.81284722
    C     -0.67683267     -4.39564650      1.50738596
    H      0.27238803     -4.69351100      1.90128568
    H     -1.18103725     -5.25036712      1.10722413
    H     -1.26830706     -3.96603944      2.28872769
    C     -0.46604184     -3.35509671      0.39184871
    N     -0.30909850     -2.58036009     -0.43871948
