90
Energy:   -419.60769623
    C      0.21173564     -4.82695968     -2.98945278
    H     -0.34428876     -4.50485522     -3.84501445
    H      0.91033301     -5.58280149     -3.28196596
    H      0.74010185     -3.99469705     -2.57343937
    C     -0.75391696     -5.40053917     -1.93582969
    N     -1.47288921     -5.82759518     -1.15135941
    C      3.76722901      3.34916187      0.56393276
    H      4.12312506      4.29239278      0.92247653
    H      4.40189697      2.56747491      0.92595648
    H      2.76872813      3.18849382      0.91333349
    C      3.77865218      3.34790122     -0.97602435
    N      3.78715725      3.34696261     -2.12259242
    C     -0.23400710      0.61121916      1.11731559
    H     -0.72525044     -0.33751974      1.05836936
    H     -0.84947029      1.36028286      0.66453780
    H     -0.06406884      0.86171714      2.14360543
    C      1.11424133      0.53807222      0.37672415
    N      2.11807357      0.48361100     -0.17467985
    C      0.56878826     -0.92959294     -3.11205780
    H      1.15548370     -1.37239031     -2.33448521
    H      1.19052174     -0.29948551     -3.71314948
    H      0.14570315     -1.69996191     -3.72232801
    C     -0.56152174     -0.09042247     -2.48772438
    N     -1.40308892      0.53437809     -2.02287977
    C      3.39047445     -2.70928185      0.63749051
    H      2.60617339     -2.05031064      0.94656811
    H      4.33692214     -2.28612461      0.90220511
    H      3.27407161     -3.65514650      1.12399800
    C      3.32463749     -2.90540023     -0.88855112
    N      3.27561888     -3.05141927     -2.02475849
    C     -0.15924922      4.39959930      3.09230915
    H      0.17623854      4.62212389      4.08368746
    H     -0.52971219      5.29188665      2.63244008
    H      0.65702599      4.01457852      2.51754584
    C     -1.28373915      3.34924371      3.15456280
    N     -2.12097302      2.56720623      3.20091348
    C     -4.16433585      0.59164082     -4.02859283
    H     -3.84929813     -0.35636085     -4.41192592
    H     -3.33068708      1.26202017     -4.00578187
    H     -4.92916830      0.99491507     -4.65891044
    C     -4.71679970      0.41079563     -2.60252175
    N     -5.12813415      0.27614817     -1.54074702
    C      0.47920226      3.33972733     -2.83417064
    H      1.17827219      2.54131806     -2.97107957
    H      0.84345674      4.22014725     -3.32107774
    H     -0.46466349      3.06359047     -3.25579248
    C      0.30727079      3.61912444     -1.32951891
    N      0.17925999      3.82714829     -0.20923730
    C      4.01192281      0.21932885      2.96617600
    H      4.95750544      0.68902801      3.13983194
    H      3.91900283     -0.02226827      1.92795839
    H      3.94632219     -0.67623661      3.54803349
    C      2.87913984      1.17997896      3.37305940
    N      2.03573142      1.89522664      3.67600259
    C     -3.28085536      2.91474470     -0.20772420
    H     -3.07836107      1.86454592     -0.17643899
    H     -4.26833291      3.09871983      0.16097668
    H     -2.57030947      3.43328924      0.40148447
    C     -3.17372100      3.41514362     -1.66021280
    N     -3.09395460      3.78771336     -2.74165659
    C     -4.75813753      0.38229601      2.13181480
    H     -4.39167133      1.35412812      2.38900162
    H     -5.57851084      0.12987848      2.77069829
    H     -5.08625375      0.38285275      1.11336572
    C     -3.63260654     -0.65392631      2.30794905
    N     -2.79459755     -1.42544093      2.43908901
    C      4.69037723      0.08109450     -2.52923788
    H      5.08823474      0.88940584     -3.10650935
    H      3.62555167      0.17143150     -2.47552707
    H      4.94651518     -0.84844897     -2.99317902
    C      5.28166652      0.12556047     -1.10797092
    N      5.72190828      0.15866741     -0.04977307
    C     -3.32101276     -2.59456146     -0.92708666
    H     -2.79423437     -1.81249071     -0.42134953
    H     -3.10822493     -3.53101661     -0.45520513
    H     -4.37280737     -2.40327889     -0.88194061
    C     -2.87163647     -2.64766733     -2.39910593
    N     -2.53705540     -2.68720707     -3.49509118
    C     -0.50816571     -0.44588715      4.87714111
    H     -0.54316129      0.55409785      4.49805603
    H     -0.22107132     -0.42679349      5.90772897
    H     -1.47418697     -0.89653228      4.78429187
    C      0.51935077     -1.26400796      4.07309620
    N      1.28438349     -1.87313610      3.47444821
    C     -0.66321589     -4.22939004      1.93844525
    H      0.18268110     -4.36930098      2.57858850
    H     -0.98764526     -5.17766712      1.56372500
    H     -1.45769746     -3.77375371      2.49170256
    C     -0.27027919     -3.31898685      0.76015547
    N      0.02228004     -2.64115030     -0.11713482
