90
Energy:   -419.59653311
    C     -2.12385164     -4.73827993      1.35959024
    H     -2.89198008     -5.38152202      1.73524767
    H     -2.17348019     -3.79365023      1.85970105
    H     -1.16739395     -5.18480300      1.53481845
    C     -2.32347732     -4.52939299     -0.15306168
    N     -2.47210772     -4.37386717     -1.27929979
    C      4.82478905      1.06937084     -4.00450560
    H      4.08208136      1.70561429     -4.43864815
    H      4.61273068      0.05098339     -4.25513947
    H      5.78908108      1.33659176     -4.38349498
    C      4.81107874      1.23477448     -2.47347534
    N      4.80087079      1.35792501     -1.33355372
    C     -0.63710858      4.86515409      2.03974492
    H     -0.55834948      5.71010443      1.38801176
    H     -1.20947465      5.13287655      2.90323833
    H     -1.12204921      4.06194104      1.52537106
    C      0.77127096      4.41976260      2.47528307
    N      1.81987355      4.08814839      2.79956102
    C     -1.15079589     -1.06209165      0.10175475
    H     -2.20684859     -1.23408988      0.11009078
    H     -0.66601425     -1.78989499      0.71834875
    H     -0.78423382     -1.14248603     -0.90027723
    C     -0.85616746      0.34866027      0.64450064
    N     -0.63680319      1.39902920      1.04859962
    C      0.56773227     -3.70034055     -2.69811855
    H     -0.00597759     -4.55831174     -2.98032877
    H      1.48401867     -3.68654059     -3.25050237
    H      0.00970806     -2.81246730     -2.91069599
    C      0.87781643     -3.76323888     -1.19097170
    N      1.10868819     -3.81006954     -0.06883237
    C      2.88586952      1.11538586      1.45459178
    H      3.72606440      1.77515058      1.51528162
    H      1.99227923      1.65284911      1.69444327
    H      2.81088838      0.72376975      0.46165988
    C      3.07063612     -0.04409509      2.45111837
    N      3.20820325     -0.90738135      3.19307771
    C     -3.96545676      3.13555485      1.20535092
    H     -3.24176068      2.96635199      1.97511358
    H     -4.93464100      3.24615785      1.64506443
    H     -3.71358692      4.02623455      0.66855455
    C     -3.97464162      1.93797974      0.23719313
    N     -3.98148017      1.04633065     -0.48364436
    C      1.91436489      3.61328399     -0.89205950
    H      2.90951948      3.52029852     -0.51006313
    H      1.27581920      2.91064529     -0.39864553
    H      1.55595484      4.60593878     -0.71577055
    C      1.91695721      3.32970668     -2.40572300
    N      1.91888730      3.11857048     -3.53271428
    C      4.11606027     -2.03763514     -0.33864421
    H      4.50027215     -2.94079610      0.08747983
    H      3.14683574     -1.83586612      0.06730181
    H      4.77489809     -1.22642413     -0.10893022
    C      4.00980701     -2.19569279     -1.86682221
    N      3.93069662     -2.31337390     -3.00462020
    C      0.32779184      1.20452907      4.45583378
    H      0.43211298      0.59348708      3.58368416
    H      0.31599011      0.58351167      5.32709562
    H      1.15079240      1.88579378      4.51454980
    C     -0.98987488      1.99726311      4.37260421
    N     -1.97093765      2.58748963      4.31063601
    C      1.39005090     -3.61537321      3.36861767
    H      1.98033501     -3.40811859      2.50056792
    H      1.04271797     -4.62671588      3.33060554
    H      1.98549281     -3.47551568      4.24656293
    C      0.18338941     -2.65937610      3.40908465
    N     -0.71502492     -1.94759280      3.43921416
    C      1.28037201     -0.26192851     -4.42590821
    H      2.01631790     -0.95786663     -4.77080526
    H      1.44905093      0.69102255     -4.88234088
    H      0.30494805     -0.61522336     -4.68788136
    C      1.38227007     -0.12335431     -2.89554421
    N      1.45813780     -0.02017952     -1.75611865
    C     -1.51777074      2.13176181     -2.68753757
    H     -0.92480637      2.31253467     -3.55966979
    H     -2.51339750      1.87169817     -2.98078382
    H     -1.08996108      1.32788065     -2.12570748
    C     -1.55396410      3.40287148     -1.81887754
    N     -1.58091169      4.34927041     -1.17212066
    C     -3.66123705     -0.22677332      3.23060616
    H     -4.52579764      0.33396565      3.51871546
    H     -2.96637050      0.41860188      2.73507571
    H     -3.20100275     -0.64511868      4.10127868
    C     -4.07939857     -1.36057354      2.27601829
    N     -4.39073883     -2.20473935      1.56528424
    C     -4.36430058     -1.79828640     -2.25017151
    H     -4.64454584     -2.77978966     -2.57112966
    H     -5.12124267     -1.09908898     -2.53837411
    H     -4.25628652     -1.78839577     -1.18568373
    C     -3.02698328     -1.40621143     -2.90550321
    N     -2.03128976     -1.11429379     -3.39342746
