90
Energy:   -419.59222552
    C      1.13177716      2.82863699     -3.98431875
    H      0.81653608      3.02824932     -4.98715381
    H      1.36346457      1.78889358     -3.88355328
    H      2.00119638      3.41104553     -3.76113807
    C      0.00071623      3.19956546     -3.00722446
    N     -0.84141004      3.47573857     -2.27973335
    C     -3.58684532      1.50149570     -2.88682828
    H     -3.14529110      1.23952080     -3.82560365
    H     -3.39995674      2.53469141     -2.68072547
    H     -4.64240487      1.33154261     -2.92936155
    C     -2.97211538      0.63611809     -1.77110936
    N     -2.51442101     -0.00819488     -0.94040591
    C      3.21807235     -3.31053029     -1.24985692
    H      2.67072535     -2.40508808     -1.09021402
    H      2.81500597     -3.82645780     -2.09617564
    H      4.24683065     -3.07828410     -1.43045913
    C      3.10531404     -4.20540276     -0.00162263
    N      3.02136036     -4.87167598      0.92774453
    C      4.95535405      1.21159895     -1.21615234
    H      5.73545119      0.57826928     -0.84839950
    H      4.33510814      1.52307116     -0.40179422
    H      5.38557486      2.07131767     -1.68593195
    C      4.10608991      0.43747944     -2.24137885
    N      3.47377415     -0.13888772     -3.00470659
    C      3.27558249      2.32256468      2.69621811
    H      3.04016747      1.45762643      3.28047983
    H      4.31114787      2.56334962      2.81674220
    H      3.07374324      2.12197627      1.66475105
    C      2.41446024      3.50957836      3.16639573
    N      1.77331559      4.39336400      3.51646434
    C     -3.02521116      3.20725064      0.68699278
    H     -3.89210182      3.22555764      0.06004332
    H     -2.18625769      2.85286331      0.12532938
    H     -2.82309203      4.19508651      1.04508107
    C     -3.27590342      2.26920817      1.88232944
    N     -3.46255520      1.57079292      2.77231192
    C     -5.30005072     -0.89818841      1.24464144
    H     -4.30409486     -1.21599474      1.01666942
    H     -5.97932891     -1.70849786      1.08069377
    H     -5.35104824     -0.59162286      2.26851443
    C     -5.68243222      0.28423190      0.33509946
    N     -5.96713264      1.16459756     -0.34209589
    C     -0.76025038      2.33767501      4.73271358
    H     -0.39552877      3.00664337      5.48395233
    H     -1.74331226      2.00736159      4.99611719
    H     -0.79453788      2.84383271      3.79062662
    C      0.17904745      1.12177416      4.62828785
    N      0.87839737      0.21648072      4.55053814
    C      0.91527328      0.62144376     -0.86222538
    H      1.54420234      1.30129359     -1.39809163
    H      0.07425570      0.35937509     -1.46960379
    H      1.46918982     -0.26138542     -0.61996890
    C      0.42329560      1.29076643      0.43452637
    N      0.05699586      1.78910759      1.40001700
    C     -2.67457833     -3.12395923     -2.07737161
    H     -1.79046008     -2.52413143     -2.01870555
    H     -3.45673812     -2.56176441     -2.54327089
    H     -2.47267785     -4.00122016     -2.65577332
    C     -3.11190885     -3.53380392     -0.65879156
    N     -3.43752130     -3.83895192      0.39740576
    C      0.65131486      5.17012572      0.39162216
    H     -0.02490286      5.50021479     -0.36908211
    H      1.05546322      6.01904122      0.90241143
    H      0.12821645      4.54989262      1.08917363
    C      1.79576405      4.36591109     -0.25264088
    N      2.64785850      3.76713675     -0.73232399
    C      0.69593800     -2.18612172     -3.61667985
    H      0.29861503     -3.05127565     -4.10508882
    H      0.65786065     -2.32599932     -2.55654615
    H      1.71126884     -2.03957554     -3.92086168
    C     -0.13872992     -0.95054236     -4.00174233
    N     -0.76017813     -0.03059736     -4.28843885
    C     -1.49102885     -1.37589226      2.17702998
    H     -1.83885482     -0.41866827      1.84894538
    H     -0.95619466     -1.26488793      3.09710037
    H     -2.32683141     -2.02700488      2.32664795
    C     -0.55724835     -1.97622815      1.10967306
    N      0.13799368     -2.42320550      0.31497731
    C     -0.28981017     -5.84815915      0.47517254
    H      0.20558874     -5.14929731      1.11632169
    H      0.09786793     -6.82992114      0.65052416
    H     -1.33999709     -5.83757633      0.67985407
    C     -0.04929640     -5.45622509     -0.99456921
    N      0.12977704     -5.16441236     -2.08885875
    C      2.62128365     -2.26242535      3.16023005
    H      2.77620412     -1.75941489      4.09183099
    H      3.16701848     -3.18278428      3.15676348
    H      1.57840779     -2.46567448      3.03374362
    C      3.11382632     -1.36922711      2.00645424
    N      3.48054672     -0.70420043      1.14741570
