90
Energy:   -419.47933441
    C      1.09894248      3.88578650     -0.51907851
    H      1.59215241      4.32810886     -1.35931365
    H      0.28442327      4.50935020     -0.21473353
    H      0.72658026      2.92041130     -0.79165178
    C      2.09731269      3.74112575      0.64450655
    N      2.84064470      3.63341925      1.51084851
    C      2.81954911     -1.03851440     -3.95532179
    H      2.93997609     -0.36327006     -4.77656633
    H      2.08982663     -0.64844631     -3.27690372
    H      2.49415282     -1.99008566     -4.32073726
    C      4.16480900     -1.20221694     -3.22383200
    N      5.16641614     -1.32410092     -2.67920460
    C     -3.25358207      4.23082818     -0.08164087
    H     -2.56214795      4.49548396      0.69087214
    H     -3.98140363      3.55059502      0.30881748
    H     -3.74434084      5.11219656     -0.43835463
    C     -2.49488425      3.56043613     -1.24205119
    N     -1.92999923      3.06129877     -2.10602942
    C     -0.87661474     -3.91674104     -3.46570883
    H     -0.06185098     -4.46302541     -3.89306533
    H     -1.80210513     -4.34397695     -3.79103346
    H     -0.81731624     -3.96463037     -2.39842752
    C     -0.80259657     -2.44667212     -3.91849872
    N     -0.74748667     -1.35213899     -4.25562138
    C     -3.76475009      0.13076967     -2.88583991
    H     -3.59509722     -0.91767826     -3.01574384
    H     -2.90923638      0.67545792     -3.22688259
    H     -4.62400542      0.42577006     -3.45113110
    C     -4.00353866      0.43122752     -1.39442947
    N     -4.18132761      0.65493204     -0.28400661
    C     -0.43153520     -0.29245773     -0.99724600
    H     -0.43308391      0.77007588     -0.87107113
    H     -1.27386868     -0.58247990     -1.58991837
    H      0.47047644     -0.59195085     -1.48875182
    C     -0.51519831     -0.97325174      0.38156508
    N     -0.57748929     -1.48013383      1.40815260
    C     -2.81534765      0.83283331      2.98909522
    H     -2.97954555      1.34518469      3.91399267
    H     -2.42721885     -0.14449876      3.18677468
    H     -3.74090168      0.74850621      2.45887097
    C     -1.80553302      1.62342728      2.13654869
    N     -1.05368013      2.21206043      1.50178904
    C      1.95246322      0.53996329      2.72474764
    H      2.82840953      1.10450960      2.96745260
    H      1.50860390      0.93517465      1.83497466
    H      2.22061414     -0.48354267      2.56528065
    C      0.94464229      0.63171333      3.88555723
    N      0.19427379      0.70002540      4.74983273
    C      0.18983422      1.89468451     -4.33995193
    H      0.28692738      1.29145755     -5.21835407
    H     -0.38930169      2.76520508     -4.56731644
    H     -0.29904875      1.33143290     -3.57272304
    C      1.58724394      2.32064354     -3.85270972
    N      2.62767900      2.63778940     -3.48993575
    C      3.58390670     -2.62301535      0.35755670
    H      3.27792788     -1.79130559      0.95716992
    H      4.50702701     -2.39016078     -0.13083528
    H      3.71710773     -3.48234662      0.98101988
    C      2.50397244     -2.91839805     -0.69984155
    N      1.69991229     -3.13832390     -1.48712260
    C      0.33769312      4.27601617      4.03476512
    H     -0.32716745      3.46226710      4.23644074
    H      0.45598132      4.86739980      4.91860470
    H      1.28962889      3.89228165      3.73233298
    C     -0.24572817      5.14834858      2.90770889
    N     -0.68011185      5.79783972      2.06856430
    C     -4.05607566     -2.46484697      1.36948027
    H     -4.72852483     -1.63364040      1.32696032
    H     -3.26058272     -2.24557738      2.05066374
    H     -4.58341153     -3.33345052      1.70465760
    C     -3.47419624     -2.72660801     -0.03212505
    N     -3.04096056     -2.92150100     -1.07568393
    C      5.01207708      1.88154983     -0.96347633
    H      4.90896320      2.53355891     -1.80558788
    H      5.81137801      1.19281595     -1.14141669
    H      5.22731144      2.45954912     -0.08912510
    C      3.70030927      1.10251779     -0.75377589
    N      2.72363850      0.52249303     -0.59764439
    C     -0.24690010     -2.71987192      4.69364054
    H     -0.94717723     -2.18531056      4.08638748
    H      0.01209942     -2.12664567      5.54563875
    H     -0.68644977     -3.63936856      5.01955631
    C      1.02083500     -3.01965572      3.87231393
    N      1.96472140     -3.24285839      3.26079894
    C     -0.26166321     -4.84237585      0.73754085
    H     -0.25538809     -5.80076725      0.26178175
    H      0.70699400     -4.63982691      1.14445144
    H     -0.51148733     -4.08939127      0.01955671
    C     -1.30527886     -4.83826263      1.86999370
    N     -2.08229814     -4.83520015      2.71315633
