90
Energy:   -419.37311015
    C     -0.23234745     -2.14975255     -3.50638070
    H     -0.62381319     -2.80669588     -4.25476577
    H      0.72592724     -1.78772564     -3.81548460
    H     -0.89939262     -1.32391147     -3.37245409
    C     -0.08808197     -2.91388854     -2.17713894
    N      0.01933024     -3.48282252     -1.18745803
    C      3.93083104      2.74438922      0.27279047
    H      4.96310345      2.48982400      0.39324960
    H      3.32633856      1.88216762      0.46269008
    H      3.67200363      3.52037836      0.96253557
    C      3.68766526      3.23488396     -1.16661403
    N      3.50661729      3.60007960     -2.23831611
    C     -0.14727661     -0.81621095      1.01889762
    H     -0.41633305     -1.81720100      1.28446822
    H     -0.27159354     -0.17640362      1.86747936
    H      0.87442937     -0.79368984      0.70186644
    C     -1.05160750     -0.32879054     -0.12836302
    N     -1.72492296      0.03411612     -0.98255072
    C      0.52658149      1.82137108     -2.83657731
    H      1.14058266      2.48342392     -3.41067556
    H     -0.03389272      2.38551514     -2.12067982
    H     -0.14592602      1.30361058     -3.48815754
    C      1.41745239      0.80175044     -2.10287247
    N      2.08074626      0.04259652     -1.55659587
    C      3.45135202     -3.07815581     -0.81206962
    H      3.38961155     -4.12027298     -0.57737814
    H      2.63046733     -2.56155241     -0.36021970
    H      4.37191140     -2.68204868     -0.43714476
    C      3.39675499     -2.89190663     -2.33979028
    N      3.35610502     -2.75323565     -3.47724775
    C     -0.28443396      3.12379225      3.09629685
    H      0.41414158      3.76021321      3.59815417
    H     -0.40365885      2.21703378      3.65170084
    H     -1.22851249      3.62141711      3.01893848
    C      0.24050249      2.79666778      1.68596664
    N      0.63134153      2.55310875      0.63591169
    C     -4.42763988      0.50140880     -3.07174623
    H     -4.95293132      1.32151125     -3.51491782
    H     -4.60782797     -0.38675541     -3.64060094
    H     -3.37873813      0.71265910     -3.06294171
    C     -4.92191205      0.29532398     -1.62785424
    N     -5.28992014      0.14188447     -0.55281102
    C      0.32504110      5.43657763     -1.52284757
    H      0.98504664      4.59993440     -1.42630242
    H      0.89388958      6.31639942     -1.74015868
    H     -0.36779032      5.25445344     -2.31765226
    C     -0.44643212      5.63655585     -0.20510793
    N     -1.02082900      5.78544873      0.77600914
    C      3.75302328     -0.63049972      1.95241031
    H      3.41055427     -0.56184363      0.94102438
    H      3.84458637     -1.66010943      2.22885042
    H      4.70593778     -0.15169464      2.03958112
    C      2.74265390      0.06343500      2.88472374
    N      1.99038798      0.58010094      3.57887346
    C     -3.15756568      2.95714817      0.28871890
    H     -4.16541037      2.60557260      0.36317618
    H     -3.04939305      3.85399977      0.86217769
    H     -2.49050092      2.21021014      0.66555743
    C     -2.82278445      3.24739122     -1.18616432
    N     -2.57352461      3.46349036     -2.28428191
    C     -4.94412493     -0.73483673      2.82175425
    H     -5.44763254     -0.66286194      3.76313616
    H     -4.72146493     -1.76055912      2.61387159
    H     -5.57311451     -0.34289531      2.04996857
    C     -3.63463720      0.07374564      2.87685819
    N     -2.65966407      0.67577196      2.91788558
    C      4.99819629      0.40267297     -3.40166866
    H      5.75502983     -0.00229705     -4.04049764
    H      4.92828993      1.45906197     -3.55676372
    H      4.05769208     -0.05418660     -3.62889155
    C      5.36315833      0.12265237     -1.93197782
    N      5.63488916     -0.08583570     -0.83772618
    C     -3.41882908     -2.94900860     -0.04208047
    H     -4.18932674     -3.59228263      0.32863785
    H     -3.55693792     -1.96359091      0.35133662
    H     -2.46402115     -3.32398281      0.26227992
    C     -3.48532474     -2.90175709     -1.57991844
    N     -3.53483377     -2.86657619     -2.72490872
    C     -0.41998481     -1.58387864      4.73341590
    H     -0.56363122     -0.54286257      4.53204203
    H      0.58368748     -1.85989764      4.48571744
    H     -0.59630900     -1.77399580      5.77152203
    C     -1.40400591     -2.41127743      3.88564606
    N     -2.13665434     -3.02731344      3.25444287
    C      0.04525999     -5.34967667      1.57351321
    H      0.29328546     -5.65498408      0.57843987
    H     -0.95879121     -4.98037710      1.59346548
    H      0.13077677     -6.18631165      2.23504770
    C      1.01029339     -4.23764663      2.02484425
    N      1.72880462     -3.40968971      2.36088073
