90
Energy:   -419.19061305
    C     -0.69666829     -3.73677118     -4.10645867
    H     -0.29119451     -2.88789189     -3.59665956
    H     -1.27983308     -3.40679328     -4.94068436
    H      0.10149149     -4.35935273     -4.45320391
    C     -1.58968110     -4.53739371     -3.14047125
    N     -2.25456973     -5.13349357     -2.42124971
    C      3.96482341      2.56266007      0.47080709
    H      4.59941021      3.39671952      0.68654910
    H      4.50822436      1.65306742      0.61999054
    H      3.11629174      2.58216339      1.12235349
    C      3.49065209      2.64330137     -0.99215516
    N      3.13760999      2.70334248     -2.08139705
    C     -0.04236820      0.37612919      1.16616376
    H      0.05248512      0.16552636      2.21093621
    H     -0.83925903     -0.20800023      0.75548514
    H     -0.25529480      1.41582377      1.02979461
    C      1.27449848      0.02356593      0.44981099
    N      2.25496558     -0.23893345     -0.08354621
    C      0.44767403      0.07267039     -3.14001265
    H     -0.02358083     -0.29237075     -4.02858679
    H      0.80633358     -0.75295191     -2.56155761
    H      1.26865285      0.70531191     -3.40582761
    C     -0.57187050      0.87580626     -2.31109666
    N     -1.33096775      1.47377742     -1.69393103
    C      2.96389512     -3.52475777     -0.40712557
    H      2.26963110     -2.97428857      0.19277552
    H      3.96124295     -3.21731677     -0.17116706
    H      2.85650125     -4.57055626     -0.20794936
    C      2.68224736     -3.25433861     -1.89680608
    N      2.47254780     -3.05299925     -3.00594093
    C      0.75482928      3.35374357      3.94720857
    H      0.44908871      4.37257901      3.83146216
    H      1.36764472      3.06881971      3.11764560
    H      1.31205285      3.24947735      4.85469386
    C     -0.48911659      2.44752334      4.00164709
    N     -1.41529083      1.77280118      4.04217904
    C     -4.30665764      2.23482690     -3.13687839
    H     -4.03567624      1.43253119     -3.79093562
    H     -3.46646282      2.88321689     -3.00063527
    H     -5.11701752      2.78643854     -3.56576131
    C     -4.73960906      1.66242665     -1.77433994
    N     -5.06196108      1.23624865     -0.75986814
    C      0.16669223      4.61831356     -1.96679686
    H     -0.00507800      5.67286013     -2.02447455
    H     -0.69720063      4.09628379     -2.32186464
    H      1.01195096      4.36108906     -2.57034664
    C      0.44073267      4.22209775     -0.50408880
    N      0.64476824      3.92709706      0.58496384
    C      4.40741657     -1.16247461      2.55462532
    H      4.04252882     -1.48979414      1.60351070
    H      4.46507039     -1.99754069      3.22113847
    H      5.38044423     -0.73373909      2.43503380
    C      3.44916961     -0.10656503      3.13636214
    N      2.73571119      0.67960765      3.56949164
    C     -2.81405350      3.15558764      1.05772617
    H     -1.93938915      3.42196882      1.61351707
    H     -2.70501209      2.16210105      0.67563527
    H     -3.67043847      3.19959760      1.69770039
    C     -2.99730059      4.13873621     -0.11335854
    N     -3.13373638      4.87073502     -0.98528433
    C     -4.45617934      0.29401991      2.76749138
    H     -3.97767730      1.07843048      3.31579424
    H     -5.26502686     -0.10265197      3.34482680
    H     -4.83357855      0.68269290      1.84477678
    C     -3.43755421     -0.82343453      2.47543243
    N     -2.67914150     -1.65543015      2.25798127
    C      4.51939714     -0.32076469     -2.83232617
    H      4.87054137      0.57999762     -3.29082935
    H      3.46738068     -0.24309800     -2.65308234
    H      4.71033426     -1.14943986     -3.48174097
    C      5.25332382     -0.53629867     -1.49572722
    N      5.79976559     -0.69677351     -0.50056855
    C     -3.67661092     -1.82416166     -1.26939565
    H     -4.71071657     -1.58314935     -1.13733978
    H     -3.09073301     -1.28580348     -0.55398203
    H     -3.53450973     -2.87524937     -1.12825399
    C     -3.23601674     -1.43309129     -2.69225922
    N     -2.90797435     -1.14192162     -3.75164582
    C      0.00536184     -1.46757283      4.64960126
    H     -0.21895709     -2.09013853      5.49043011
    H     -0.90554240     -1.10354089      4.22224509
    H      0.60537462     -0.64080860      4.96794803
    C      0.77566609     -2.28540140      3.59632647
    N      1.34919262     -2.89431195      2.81211551
    C     -1.03804363     -4.48110750      0.91946504
    H     -1.69236250     -4.12292712      1.68658552
    H     -0.14097177     -4.85910189      1.36362875
    H     -1.52287371     -5.26340034      0.37370245
    C     -0.68963298     -3.32667117     -0.03839026
    N     -0.43022542     -2.46714085     -0.75155708
