90
Energy:   -419.18260713
    C     -1.04763760     -5.55564981      1.27692350
    H     -0.95400056     -6.26173241      2.07540935
    H     -1.62199367     -5.98772642      0.48425459
    H     -1.53951118     -4.67545393      1.63499428
    C      0.35217119     -5.18437480      0.75319628
    N      1.39439247     -4.90794368      0.36325756
    C      4.95755960      1.04178171     -3.78932596
    H      4.29429277      1.79941758     -4.15121707
    H      4.63005222      0.08472734     -4.13815965
    H      5.94717962      1.23282638     -4.14856578
    C      4.95922078      1.05383377     -2.24937402
    N      4.96045761      1.06280708     -1.10280980
    C     -1.25552378      4.62308266      2.78560208
    H     -0.89570951      5.35196829      3.48141787
    H     -2.13464485      4.15740599      3.17954429
    H     -1.49052719      5.10129863      1.85771094
    C     -0.16987900      3.55598310      2.55263441
    N      0.63843289      2.76147897      2.37917938
    C     -1.12887835      0.75826315      0.18375945
    H     -1.55195148      0.49377627     -0.76279006
    H     -0.44046819      1.56694556      0.05328599
    H     -1.90901498      1.05823840      0.85181692
    C     -0.38795041     -0.45671386      0.77236513
    N      0.16370412     -1.36131948      1.21060881
    C     -0.02255740     -2.84616618     -2.11299541
    H      0.55302593     -2.16637220     -1.52013440
    H     -0.19500554     -2.41921255     -3.07884805
    H      0.51216140     -3.76674458     -2.22028145
    C     -1.37236846     -3.11411113     -1.42175334
    N     -2.37736416     -3.31360832     -0.90709220
    C      3.19716164      0.77290033      1.76377992
    H      4.13486100      0.39897748      1.40909444
    H      3.24175263      1.83973006      1.83295407
    H      2.42069386      0.49174654      1.08337605
    C      2.90093046      0.18028263      3.15397823
    N      2.68037288     -0.26094818      4.18904407
    C     -4.23403014      2.98968351      0.75760667
    H     -3.22460183      3.08397008      1.09975388
    H     -4.70692895      2.17329183      1.26235456
    H     -4.76689229      3.89407241      0.96506202
    C     -4.23930838      2.72733062     -0.75987253
    N     -4.24323827      2.53199697     -1.88970476
    C      2.42948292      3.59983809     -0.56099576
    H      2.03534393      4.52746717     -0.20174801
    H      3.43188681      3.47736980     -0.20731929
    H      1.82420244      2.79296952     -0.20392749
    C      2.42518756      3.60229605     -2.10098780
    N      2.42198948      3.60412611     -3.24758188
    C      3.49989673     -2.23641033     -0.41594854
    H      4.31825842     -1.65380230     -0.04750289
    H      3.59858825     -3.24578006     -0.07487403
    H      2.57953444     -1.82654701     -0.05560927
    C      3.50465935     -2.21208928     -1.95574911
    N      3.50820533     -2.19398114     -3.10220063
    C     -0.65627332     -0.03653435      4.57783832
    H     -0.11510982     -0.55749941      3.81584248
    H     -1.06262001     -0.74186295      5.27231152
    H      0.00414603      0.63018516      5.09187184
    C     -1.80082094      0.76883553      3.93519528
    N     -2.65298868      1.36847002      3.45671833
    C      1.93939361     -3.43572936      3.47785237
    H      2.07123080     -2.81517310      2.61620913
    H      2.28390628     -4.42523188      3.26083883
    H      2.50028170     -3.03415376      4.29580145
    C      0.44654370     -3.48269129      3.85307726
    N     -0.66495092     -3.51765658      4.13244925
    C      1.30022825      0.31992606     -4.47313892
    H      1.92396235     -0.47520724     -4.82473387
    H      1.62977505      1.24565149     -4.89661315
    H      0.28762350      0.13462637     -4.76502030
    C      1.38561040      0.39866417     -2.93752497
    N      1.44918129      0.45728827     -1.79419059
    C     -1.14564739      3.23810746     -3.18038333
    H     -0.94545002      2.18758537     -3.14538995
    H     -0.41646772      3.71978126     -3.79778632
    H     -2.12164766      3.40184028     -3.58721760
    C     -1.07854466      3.82117193     -1.75660910
    N     -1.02858363      4.25528993     -0.69654448
    C     -3.29784672     -2.27178390      2.30285150
    H     -3.82367193     -3.19801811      2.20039066
    H     -3.37977556     -1.92484728      3.31172302
    H     -2.26642402     -2.41829069      2.05871615
    C     -3.90761394     -1.22716629      1.34966843
    N     -4.36161336     -0.44940100      0.63998030
    C     -4.50916213     -0.90283908     -2.65718975
    H     -4.49395730     -1.74756771     -2.00060576
    H     -5.07871086     -1.14067517     -3.53123055
    H     -4.95595941     -0.06964279     -2.15613564
    C     -3.06826463     -0.54393433     -3.06535858
    N     -1.99545095     -0.27671343     -3.36925882
