90
Energy:   -418.58096680
    C     -2.53164151     -4.45152972      0.78988332
    H     -2.00595463     -3.53931484      0.98071697
    H     -2.13222426     -5.22913911      1.40688299
    H     -3.56984239     -4.31800713      1.01171604
    C     -2.36886647     -4.83743444     -0.69206872
    N     -2.24767306     -5.12475804     -1.79544937
    C      5.10508315      1.61900269     -3.39061102
    H      4.15756332      1.82845356     -3.84142882
    H      5.36425353      0.59550033     -3.56431402
    H      5.85215893      2.25380630     -3.81933148
    C      5.02056097      1.87698609     -1.87472826
    N      4.95763036      2.06906645     -0.74608463
    C     -0.77192635      3.86174496      2.43248533
    H     -0.57668067      4.44553464      3.30768183
    H     -1.16187812      4.49354506      1.66198851
    H      0.13702748      3.40841540      2.09604166
    C     -1.79991098      2.76465812      2.76602401
    N     -2.56529227      1.94782710      3.01435872
    C     -1.33570291     -0.32174270      0.19382764
    H     -1.02316700     -0.33925413     -0.82936093
    H     -2.19058575      0.31377049      0.29480981
    H     -1.58938984     -1.31316019      0.50629106
    C     -0.19000715      0.21569777      1.07140327
    N      0.66301541      0.61584663      1.72479821
    C      0.84760378     -3.69237979     -2.96379439
    H      0.15002810     -4.45895316     -3.22960187
    H      1.84395916     -4.03947316     -3.14184282
    H      0.66241781     -2.82066742     -3.55601293
    C      0.68411346     -3.34414572     -1.47261903
    N      0.56238748     -3.08486963     -0.36237120
    C      3.74486886      1.99337802      2.45237138
    H      4.74726924      2.19908964      2.13967920
    H      3.41274354      2.76461840      3.11553059
    H      3.10412850      1.95887451      1.59612353
    C      3.70236091      0.63695428      3.18031899
    N      3.67071180     -0.37296485      3.72230908
    C     -4.81954090      2.09418820      0.44327720
    H     -4.10482338      2.87215342      0.61312761
    H     -4.69103271      1.32550662      1.17643024
    H     -5.80846452      2.49598702      0.51735054
    C     -4.60984443      1.50253568     -0.96298547
    N     -4.45371588      1.06202349     -2.01001194
    C      1.83304061      3.65264033     -0.57881291
    H      2.79516801      3.86420910     -0.16114115
    H      1.46981566      2.72584510     -0.18636249
    H      1.15308272      4.43864999     -0.32436220
    C      1.94970005      3.55076524     -2.11100482
    N      2.03655830      3.47491461     -3.25179134
    C      3.51501333     -1.10257011     -0.35063651
    H      4.01740457     -0.47920288      0.35923426
    H      4.22209862     -1.47356488     -1.06288110
    H      3.05647137     -1.92462362      0.15815264
    C      2.43422695     -0.28265381     -1.07949732
    N      1.62953237      0.32781114     -1.62216732
    C      0.27351943      0.32006664      5.07696881
    H     -0.48348156      0.17539874      4.33472836
    H     -0.15037622      0.18408099      6.04996391
    H      1.05958971     -0.39040746      4.92790788
    C      0.84177524      1.74655208      4.95939070
    N      1.26486753      2.80863533      4.87184846
    C      1.59540123     -2.80126899      2.77129874
    H      1.90025274     -1.93065096      2.22909031
    H      1.76521713     -3.67181835      2.17279606
    H      2.16184032     -2.87445346      3.67611358
    C      0.09698346     -2.69603671      3.11081365
    N     -1.01865667     -2.61768650      3.36359792
    C      1.50154090      0.07311484     -5.03682648
    H      1.54122534      1.02518566     -4.55011664
    H      0.55465519     -0.38657990     -4.84450566
    H      1.62585787      0.20610786     -6.09122547
    C      2.62831105     -0.82695081     -4.49657574
    N      3.46724264     -1.49709059     -4.09433450
    C     -1.21442252      1.99606774     -3.14332195
    H     -0.79422573      2.71247721     -3.81792725
    H     -2.15763147      1.66073643     -3.52122258
    H     -0.55070192      1.16200981     -3.04993342
    C     -1.41693785      2.64802116     -1.76290742
    N     -1.56771971      3.13343012     -0.73512606
    C     -3.88598469     -1.02574796      3.83007551
    H     -4.59553744     -0.30924834      4.18793493
    H     -2.89592493     -0.63846517      3.95128939
    H     -3.98435894     -1.93401357      4.38709900
    C     -4.14812017     -1.30714648      2.33886799
    N     -4.34329195     -1.51666046      1.22859621
    C     -3.97102125     -2.18060981     -2.49661658
    H     -4.11818900     -3.21100668     -2.74465716
    H     -4.74720462     -1.59261235     -2.94012244
    H     -3.99726014     -2.06240575     -1.43348987
    C     -2.60431904     -1.71401003     -3.03141537
    N     -1.58674713     -1.36660529     -3.42959737
