90
Energy:   -418.55256348
    C     -2.31619558     -4.37635800      0.58836655
    H     -1.49614453     -4.98329974      0.91091605
    H     -3.22300263     -4.74164215      1.02330053
    H     -2.15452257     -3.36483541      0.89753152
    C     -2.42402029     -4.43291598     -0.94681260
    N     -2.50430068     -4.47502597     -2.08982326
    C      4.69914606      1.65494634     -3.84219054
    H      4.52517908      0.64138300     -4.13769861
    H      5.61032807      2.00326918     -4.28186956
    H      3.88653854      2.26740792     -4.17303633
    C      4.80765505      1.73090869     -2.30789738
    N      4.88844494      1.78746611     -1.16554638
    C     -0.49978533      3.66539208      2.52525693
    H     -0.39240592      4.50927312      1.87623102
    H     -1.31512130      3.83383256      3.19738352
    H     -0.69335840      2.78934716      1.94218417
    C      0.79774573      3.46925530      3.33119956
    N      1.76381658      3.32322255      3.93126048
    C     -1.28145581     -0.36673033      0.13599554
    H     -2.14484389     -0.26962089      0.76052013
    H     -1.15984259     -1.39125685     -0.14764987
    H     -1.40614187      0.23371838     -0.74082475
    C     -0.03439758      0.10386056      0.90735148
    N      0.89409396      0.45423686      1.48166104
    C      0.55800619     -3.24827746     -3.21726402
    H      1.52665303     -3.21073647     -3.67026971
    H     -0.01059070     -2.39384366     -3.51981905
    H      0.05389640     -4.13994197     -3.52662921
    C      0.70777483     -3.24872404     -1.68456407
    N      0.81928440     -3.24905654     -0.54339928
    C      4.13931274      1.60343787      2.21049800
    H      3.33497737      1.69873386      1.51131028
    H      5.06566393      1.52780763      1.68035403
    H      4.16199402      2.46295376      2.84737874
    C      3.93105671      0.33807128      3.06318600
    N      3.77600062     -0.60405166      3.69805097
    C     -4.10763820      1.98692787      1.31423015
    H     -4.46734418      1.17273867      1.90803797
    H     -4.59838648      2.88983369      1.61226754
    H     -3.05206439      2.09165905      1.45456692
    C     -4.40285751      1.70850716     -0.17134296
    N     -4.62266171      1.50121029     -1.27741967
    C      1.94574772      3.45993200     -0.54093475
    H      1.69175094      2.46514067     -0.23964417
    H      1.27997185      4.15509272     -0.07360921
    H      2.95142226      3.67602945     -0.24628290
    C      1.82211301      3.58015755     -2.07124854
    N      1.73006135      3.66967093     -3.21063671
    C      3.69006896     -1.32565548     -0.32087723
    H      3.56811437     -2.26202272      0.18235597
    H      2.85367113     -0.69378657     -0.10621599
    H      4.58929172     -0.85392816      0.01642210
    C      3.77517159     -1.56634065     -1.83957015
    N      3.83853438     -1.74554170     -2.97030606
    C      0.33280807      0.18307948      4.93251074
    H      0.64327047      0.95735318      5.60259544
    H      1.07106998      0.05526415      4.16861827
    H      0.21783560     -0.73249366      5.47418060
    C     -1.01109895      0.57040425      4.28792293
    N     -2.01169882      0.85878516      3.80799802
    C      1.67645649     -2.94513137      2.63403356
    H      1.98073210     -2.08533018      2.07451730
    H      1.82821924     -3.82572169      2.04545235
    H      2.25680815     -3.01096118      3.53055879
    C      0.18482694     -2.82046461      2.99611019
    N     -0.92575906     -2.72764455      3.26569270
    C      1.21380644      0.30140070     -4.78279835
    H      1.39928957      1.28688513     -5.15604978
    H      0.27889390     -0.05391019     -5.16305066
    H      1.99915756     -0.35320744     -5.09841028
    C      1.16210591      0.33656832     -3.24406826
    N      1.12361252      0.36275221     -2.09841377
    C     -1.84194407      2.74264683     -3.25269583
    H     -1.86697205      3.67007312     -3.78575704
    H     -2.77607225      2.23543984     -3.37535270
    H     -1.05146415      2.13199785     -3.63629511
    C     -1.59917595      3.01672370     -1.75685309
    N     -1.41842405      3.22078639     -0.64313017
    C     -4.20611915     -1.76613341      4.04569136
    H     -3.32805925     -2.29981755      4.34417458
    H     -5.07300489     -2.26379657      4.42744993
    H     -4.16703393     -0.76972765      4.43369524
    C     -4.27845523     -1.71584362      2.50821342
    N     -4.33231273     -1.67840059      1.36349120
    C     -4.24679488     -1.58460734     -2.42286846
    H     -4.45225174     -2.56609726     -2.79618494
    H     -5.06823457     -0.93754785     -2.64969426
    H     -4.10904270     -1.62787115     -1.36265542
    C     -2.96708939     -1.04100899     -3.08502757
    N     -2.01429048     -0.63627532     -3.57803513
