90
Energy:   -418.43067487
    C     -0.13570182     -4.49050611     -2.72395988
    H     -0.51278902     -4.28521023     -3.70404101
    H      0.65610469     -5.20721131     -2.78934487
    H      0.23632709     -3.58674704     -2.28839919
    C     -1.26803315     -5.05519748     -1.84615043
    N     -2.11110529     -5.47563587     -1.19258140
    C      3.07971223      2.44537568     -0.23133097
    H      3.03957422      3.45629183      0.11700460
    H      4.01940623      2.01161314      0.04019126
    H      2.28548124      1.88304737      0.21350957
    C      2.92812266      2.42403829     -1.76370342
    N      2.81525734      2.40815163     -2.90462436
    C     -0.68219323     -0.22095990      1.16481451
    H     -0.54837863      0.08973850      2.17993043
    H      0.07931838     -0.92602824      0.90428082
    H     -1.64362738     -0.67765236      1.05538208
    C     -0.58704702      1.00393591      0.23627941
    N     -0.51620635      1.91592652     -0.45505718
    C      0.59165557     -0.42766549     -3.38124916
    H      0.62262594     -1.33575826     -3.94632308
    H      1.04203128      0.36046245     -3.94774291
    H     -0.42583361     -0.17590181     -3.16623775
    C      1.36330222     -0.61735763     -2.06209096
    N      1.93782822     -0.75859205     -1.07991772
    C      3.95453032     -3.71035888     -1.16387996
    H      3.82810288     -2.84673449     -0.54495411
    H      4.99584940     -3.94359602     -1.24232805
    H      3.43508052     -4.53916381     -0.73011344
    C      3.38538866     -3.42478524     -2.56606592
    N      2.96163682     -3.21216268     -3.61005710
    C      0.71626855      3.84445596      2.59996677
    H      0.98076151      3.50657262      1.61977367
    H      1.52532569      3.65316924      3.27356533
    H      0.51545794      4.89509613      2.57295918
    C     -0.53982617      3.09392746      3.08010533
    N     -1.47504579      2.53512488      3.43759030
    C     -3.18072950      1.34867860     -2.75188309
    H     -2.20211868      1.77659879     -2.68781006
    H     -3.82587217      2.01256690     -3.28848568
    H     -3.12718603      0.41120949     -3.26489758
    C     -3.73773791      1.12654484     -1.33343386
    N     -4.15245600      0.96115616     -0.27733393
    C      0.09251243      4.43218112     -2.88391520
    H     -0.15956130      3.39375538     -2.82886068
    H      0.94498640      4.55914099     -3.51800385
    H     -0.73496311      4.97929670     -3.28497362
    C      0.41933171      4.95657409     -1.47331208
    N      0.66266351      5.34700850     -0.42305394
    C      3.29261971     -1.40787931      2.01424562
    H      2.64556949     -1.88707400      1.30954807
    H      3.44452205     -2.05249055      2.85466286
    H      4.23380690     -1.19946457      1.54988686
    C      2.65065539     -0.09039796      2.48724107
    N      2.17268377      0.89052680      2.83940768
    C     -2.77122450      4.34284483      0.61923503
    H     -1.85121254      4.82589810      0.87445594
    H     -2.70639899      3.30224855      0.85976802
    H     -3.57263904      4.78733369      1.17156055
    C     -3.03521688      4.50555859     -0.88921857
    N     -3.23177120      4.62670638     -2.01233084
    C     -4.52194731      1.13861419      3.03246804
    H     -4.59540110      1.55924839      4.01357537
    H     -5.50337746      1.00065026      2.62915686
    H     -3.96675184      1.80058792      2.40124077
    C     -3.80276816     -0.22096941      3.10936906
    N     -3.26730659     -1.23324121      3.16662536
    C      4.90650839     -0.22502396     -3.42795893
    H      3.87118737     -0.44163443     -3.58948436
    H      5.50636535     -0.93297165     -3.96076359
    H      5.12338366      0.76214479     -3.77918830
    C      5.22111342     -0.31513658     -1.92313223
    N      5.45535116     -0.38222951     -0.80272035
    C     -4.02352505     -2.70034428     -0.08957951
    H     -3.66931887     -2.74966668      0.91888738
    H     -4.31575289     -3.67748183     -0.41315978
    H     -4.86499272     -2.04135573     -0.14022885
    C     -2.90164114     -2.17145923     -1.00240867
    N     -2.06634757     -1.77768027     -1.68205148
    C     -0.38642163     -0.14337141      5.26313054
    H     -0.42911963     -0.26601083      6.32522123
    H     -1.37464242      0.00709942      4.88145359
    H      0.22050150      0.70540063      5.02621403
    C      0.22381626     -1.40502733      4.62482492
    N      0.67816610     -2.34438751      4.14957737
    C     -1.14293316     -4.13755719      2.05394186
    H     -1.88518632     -4.72500836      1.55508161
    H     -1.54482187     -3.17197960      2.27987210
    H     -0.85330260     -4.62461703      2.96156841
    C      0.08692653     -3.98077422      1.14045171
    N      1.00261297     -3.86404218      0.46031677
