90
Energy:   -418.32610466
    C     -2.35575376     -4.61826426      0.62426525
    H     -2.54326074     -3.67441043      1.09211272
    H     -1.39213512     -4.97757020      0.91962510
    H     -3.10549855     -5.32024861      0.92426495
    C     -2.39370244     -4.44924326     -0.90596081
    N     -2.42195696     -4.32339944     -2.04528367
    C      5.46216191      1.25074685     -2.99019610
    H      6.40600763      1.56575411     -3.38367528
    H      4.73651993      2.02201456     -3.14345708
    H      5.14650898      0.35943411     -3.49101936
    C      5.60241616      0.97014645     -1.48248520
    N      5.70684183      0.76122670     -0.35992590
    C     -1.57267449      4.57948323      2.33112551
    H     -1.92969959      3.81263892      1.67585224
    H     -1.54437010      5.51187364      1.80696326
    H     -2.22814082      4.66318631      3.17270544
    C     -0.15617833      4.22075007      2.81738590
    N      0.89846744      3.95365693      3.17942886
    C     -0.50204305     -1.10366873      0.34149862
    H     -0.85353580     -1.34411604     -0.64010115
    H     -1.09251615     -1.62111178      1.06847407
    H      0.52151428     -1.40065501      0.43651770
    C     -0.61947400      0.41456777      0.57121128
    N     -0.70690669      1.54496385      0.74224279
    C      0.88700594     -3.42888854     -2.97851184
    H     -0.03848988     -3.77406500     -3.38986434
    H      1.70176995     -3.86909626     -3.51449306
    H      0.93919344     -2.36344521     -3.06221408
    C      0.97126614     -3.83196511     -1.49458816
    N      1.03400168     -4.13207393     -0.38973952
    C      3.32200592      1.57226497      1.81103155
    H      4.36691179      1.52190238      2.03583257
    H      2.88895783      2.41140208      2.31423862
    H      3.18926622      1.68223825      0.75500828
    C      2.63243279      0.27873767      2.28312903
    N      2.11901425     -0.68435220      2.63462707
    C     -4.21442664      2.23557910      0.49852034
    H     -5.14403926      1.97795388      0.96149961
    H     -4.02223119      3.27855734      0.64049360
    H     -3.42528775      1.66406165      0.94070435
    C     -4.28886739      1.92781519     -1.00857619
    N     -4.34429192      1.69867097     -2.13067806
    C      1.74994948      4.17380692     -0.22371055
    H      2.58504807      4.43433690      0.39243444
    H      1.26161909      3.31288506      0.18279415
    H      1.06151524      4.99228585     -0.25610872
    C      2.24169403      3.85992405     -1.64893504
    N      2.60782020      3.62622399     -2.71007945
    C      3.98357922     -2.30639329     -0.02426998
    H      4.77172772     -1.73410107      0.41867892
    H      4.06605449     -3.32706010      0.28611070
    H      3.03858095     -1.91378116      0.28835291
    C      4.09062310     -2.22613688     -1.55844746
    N      4.17032213     -2.16638233     -2.70071232
    C     -0.53973098      0.76075554      4.20147350
    H     -0.29926511      0.90528205      5.23403751
    H      0.16236794      1.29258783      3.59392876
    H     -0.49548093     -0.28243012      3.96758313
    C     -1.96000919      1.28871293      3.92639026
    N     -3.01747088      1.68180121      3.72157829
    C      1.22998268     -3.84119809      3.05842180
    H      1.64512706     -3.39049224      2.18125617
    H      1.18241303     -4.90190232      2.92597277
    H      1.84755821     -3.61447413      3.90227949
    C     -0.18789980     -3.28956844      3.29698838
    N     -1.24357776     -2.87885510      3.47461203
    C      1.91468521      0.40238355     -4.00580833
    H      2.51132079     -0.39633087     -4.39437165
    H      2.29067784      1.33676882     -4.36699083
    H      0.90102604      0.27838019     -4.32520985
    C      1.97373924      0.38559105     -2.46703264
    N      2.01770766      0.37308827     -1.32134419
    C     -1.02230504      2.61600048     -2.68826689
    H     -0.24321387      2.94838404     -3.34205455
    H     -1.87085089      2.31725717     -3.26759536
    H     -0.67364478      1.78485911     -2.11160482
    C     -1.42415309      3.76380797     -1.74346209
    N     -1.72334723      4.61840281     -1.04001197
    C     -4.45878296     -1.34730179      3.36542452
    H     -5.13902102     -2.15442857      3.54070355
    H     -4.91676958     -0.42521043      3.65679175
    H     -3.56851693     -1.50022764      3.93895670
    C     -4.10190725     -1.29266587      1.86834248
    N     -3.83619706     -1.25198695      0.75369685
    C     -3.87614286     -1.44901861     -2.98057130
    H     -4.01579278     -2.43406553     -3.37437410
    H     -4.48119886     -0.75691634     -3.52811196
    H     -4.16091992     -1.43350863     -1.94928057
    C     -2.39445430     -1.04971936     -3.11002834
    N     -1.29126982     -0.75242292     -3.20641499
