90
Energy:   -418.28901408
    C     -0.23924571     -4.50963000     -3.72746972
    H      0.72465616     -4.11568984     -3.97364957
    H     -0.99765677     -3.83833312     -4.07253818
    H     -0.36572513     -5.46256925     -4.19737273
    C     -0.35296324     -4.67125517     -2.20020235
    N     -0.43763111     -4.79159246     -1.06308237
    C      3.56180926      2.99327024     -0.32085699
    H      4.21455272      3.82517043     -0.48446699
    H      4.12817176      2.16179289      0.04353020
    H      2.81701278      3.26056623      0.39937224
    C      2.87915696      2.60795455     -1.64642014
    N      2.37089129      2.32106951     -2.63336215
    C      0.89602899      0.37237461      0.17881726
    H      1.33380621      1.19106387      0.71079393
    H      1.60914386     -0.02601614     -0.51230580
    H      0.60700158     -0.38969893      0.87207492
    C     -0.34441407      0.86427602     -0.58990506
    N     -1.26798031      1.23051899     -1.16225377
    C     -0.20707905      0.42554749     -4.35136346
    H     -1.20718432      0.61038326     -4.01890990
    H     -0.22536077      0.08771969     -5.36646801
    H      0.36307384      1.32864339     -4.28622852
    C      0.43804413     -0.65404329     -3.46260037
    N      0.91836767     -1.45784771     -2.80087586
    C      2.71288205     -3.53571161     -0.50099079
    H      3.60203124     -3.32868868      0.05709111
    H      2.18823499     -4.35018374     -0.04681053
    H      2.08663651     -2.66815579     -0.50889712
    C      3.08959758     -3.91007140     -1.94651498
    N      3.37007941     -4.18879927     -3.02277344
    C      0.33003139      3.29487817      3.13194197
    H      1.22207958      3.23387433      3.71967383
    H      0.20675976      4.29551393      2.77356888
    H      0.40394191      2.62495670      2.30089350
    C     -0.88281023      2.90669604      3.99792687
    N     -1.78582594      2.61767680      4.64269199
    C     -4.58468712      1.16471605     -2.43262472
    H     -4.88762827      0.36598543     -3.07695092
    H     -3.55695439      1.39997065     -2.61516183
    H     -5.18777256      2.02717153     -2.62590581
    C     -4.75985331      0.73440833     -0.96437676
    N     -4.89027249      0.41402468      0.12880059
    C     -0.59088144      4.32910893     -2.61035521
    H      0.24162118      4.19411590     -3.26885081
    H     -1.06804051      5.26237565     -2.82537038
    H     -1.28944556      3.53078426     -2.75030156
    C     -0.09689949      4.32918228     -1.15173194
    N      0.27089252      4.32923690     -0.06572062
    C      4.33764353     -0.99707929      2.37830267
    H      3.84869921     -1.53264493      1.59153518
    H      4.32168695     -1.58400931      3.27281798
    H      5.35158870     -0.79998339      2.09907609
    C      3.60499900      0.33480694      2.62510434
    N      3.05951185      1.32645678      2.80885939
    C     -3.03152336      3.24896402      1.19920776
    H     -2.16339960      2.63071519      1.10418300
    H     -3.84552269      2.66538995      1.57569878
    H     -2.82531032      4.05180685      1.87583075
    C     -3.40621537      3.82319811     -0.17972702
    N     -3.68519060      4.25074149     -1.20640663
    C     -4.01953938      0.03772486      3.58093243
    H     -4.83803567     -0.05333623      2.89779856
    H     -4.08484653      0.97502555      4.09289092
    H     -4.05814462     -0.76065933      4.29226317
    C     -2.69195804     -0.03115127      2.80351114
    N     -1.70351339     -0.08243269      2.22468564
    C      4.14864264     -0.68658771     -3.63241149
    H      5.12964885     -0.78457066     -4.04825562
    H      3.67819862      0.18807903     -4.03058182
    H      3.56739633     -1.54941391     -3.88257698
    C      4.25037512     -0.56260682     -2.10078515
    N      4.32611957     -0.47029741     -0.96041972
    C     -2.29263282     -2.04554801     -0.62171147
    H     -1.23678991     -2.10577994     -0.45902147
    H     -2.75843538     -2.94526663     -0.27756983
    H     -2.68934863     -1.21014478     -0.08355062
    C     -2.57087614     -1.86629264     -2.12572216
    N     -2.77804095     -1.73282888     -3.24552649
    C      0.59207125     -0.22049898      4.97419834
    H      0.44670186      0.64437662      5.58718947
    H      0.61566811      0.07158860      3.94510791
    H      1.51823973     -0.68960902      5.23313234
    C     -0.56565965     -1.21049507      5.20039932
    N     -1.42764294     -1.94759216      5.36881623
    C     -1.05200479     -3.70343245      2.40789175
    H     -1.11221271     -4.38307653      1.58365931
    H     -1.81817933     -2.96223324      2.31569962
    H     -1.18398612     -4.24083856      3.32368358
    C      0.32732512     -3.01856154      2.40880241
    N      1.35429894     -2.50864401      2.40948044
