90
Energy:   -418.09316206
    C     -0.16595999     -4.27734804     -3.21578731
    H      0.79855219     -3.86525954     -3.42744626
    H     -0.91136854     -3.74070627     -3.76467782
    H     -0.18437219     -5.30789958     -3.50305651
    C     -0.45480612     -4.15958635     -1.70770903
    N     -0.66986519     -4.07190743     -0.58487620
    C      2.31867492      1.54305502     -0.13664099
    H      3.15884612      1.96928593      0.37064567
    H      2.32125506      0.48163981     -0.00139976
    H      1.41484485      1.95155343      0.26475575
    C      2.40658279      1.86931383     -1.63911475
    N      2.47203420      2.11222833     -2.75777476
    C     -0.92225189     -0.78751363      0.57000723
    H     -0.06042537     -1.34569740      0.26903195
    H     -1.79649281     -1.39468287      0.46070305
    H     -0.81751959     -0.49404454      1.59363125
    C     -1.05512086      0.46734970     -0.31275201
    N     -1.15404785      1.40165248     -0.97000639
    C     -0.26626676      0.27346891     -4.13830022
    H     -1.18522506      0.59463244     -3.69414957
    H     -0.47614112     -0.30263537     -5.01520142
    H      0.31899349      1.12860376     -4.40497213
    C      0.51607257     -0.59036349     -3.13165293
    N      1.09855977     -1.23352597     -2.38215827
    C      2.70916201     -3.08942640      0.09528743
    H      1.92187417     -3.63182032      0.57579431
    H      2.39869339     -2.07828297     -0.06625917
    H      3.58036421     -3.10011933      0.71640856
    C      3.03523135     -3.74868660     -1.25772949
    N      3.27800480     -4.23953579     -2.26511208
    C      1.31892626      3.98791068      2.81821290
    H      1.81572377      3.94074063      3.76471562
    H      0.85911517      4.94731995      2.70416595
    H      2.03105335      3.83818027      2.03376730
    C      0.24076086      2.89046604      2.74911402
    N     -0.56198228      2.07336863      2.69766677
    C     -4.24646124      1.43097297     -2.70290938
    H     -3.25107204      1.79500928     -2.84980415
    H     -4.94739478      2.20492647     -2.93654851
    H     -4.41686728      0.59041308     -3.34269054
    C     -4.42500030      1.00289547     -1.23441577
    N     -4.55793074      0.68417232     -0.14105554
    C     -0.24943272      4.24802875     -2.82393267
    H     -0.76348796      3.31231707     -2.89528416
    H      0.63019467      4.21904218     -3.43246740
    H     -0.89141025      5.03436449     -3.16222255
    C      0.14838512      4.50473789     -1.35851758
    N      0.44457858      4.69586951     -0.26744943
    C      5.30910951     -0.13387131      2.19864023
    H      5.87925391     -0.60122801      2.97414861
    H      5.96743420      0.20160589      1.42471339
    H      4.61269474     -0.83827762      1.79402027
    C      4.54334767      1.06975726      2.77871528
    N      3.97320317      1.96591344      3.21060753
    C     -2.89292671      3.83380503      0.86328753
    H     -2.72131330      2.77867700      0.90969712
    H     -3.71470404      4.08979887      1.49893544
    H     -2.01539283      4.35253183      1.18848883
    C     -3.22017010      4.23738278     -0.58641478
    N     -3.46381767      4.53786475     -1.66578404
    C     -3.52112657      0.33111222      3.20749820
    H     -2.70792142      0.32894655      3.90290663
    H     -4.40315420      0.69564369      3.69127827
    H     -3.28069394      0.96478702      2.37952024
    C     -3.76811732     -1.10244419      2.70201668
    N     -3.95201316     -2.16979210      2.32566271
    C      4.24972229     -0.97724249     -3.65079604
    H      5.14716690     -1.11746076     -4.21633313
    H      3.72969923     -0.11584941     -4.01477006
    H      3.62542017     -1.84023726     -3.75270764
    C      4.60504641     -0.77312736     -2.16631573
    N      4.86960136     -0.62115437     -1.06105266
    C     -4.08873493     -2.89450834     -0.90708114
    H     -3.39232411     -3.34252815     -0.22944525
    H     -4.73744765     -3.64827428     -1.30193277
    H     -4.66917128     -2.16038229     -0.38837923
    C     -3.32198870     -2.22142679     -2.06062414
    N     -2.75111128     -1.72028698     -2.91948934
    C      1.31752440      0.20811508      4.89309986
    H      1.52386432     -0.44831825      5.71250165
    H      0.28766882      0.49734955      4.91839799
    H      1.93454356      1.07893856      4.96960413
    C      1.61472550     -0.51672919      3.56725210
    N      1.83600524     -1.05640869      2.58009817
    C     -0.79539885     -3.77958863      2.78797385
    H      0.02674571     -3.46286793      2.18079472
    H     -1.68081249     -3.83332042      2.18959715
    H     -0.58396881     -4.74437480      3.19953682
    C     -1.00864027     -2.76952340      3.93073206
    N     -1.16740820     -2.01748393      4.78156749
