90
Energy:   -418.04414082
    C     -0.55852576     -3.65067766      2.20080912
    H      0.47537101     -3.68536589      2.47422159
    H     -1.14483929     -4.12080410      2.96246301
    H     -0.86496930     -2.63116860      2.09313964
    C     -0.76166176     -4.39145415      0.86604848
    N     -0.91290575     -4.94299591     -0.12774149
    C      3.61730103      2.93550574     -3.02991619
    H      3.20183999      3.82207622     -2.59830864
    H      2.83230531      2.23933905     -3.23975600
    H      4.12491215      3.18508672     -3.93817793
    C      4.61448263      2.30225544     -2.04187625
    N      5.35692966      1.83077180     -1.30623561
    C     -0.53574057      3.16662848      1.79757376
    H      0.26351802      3.38744776      2.47383165
    H     -0.79337222      4.04885008      1.24965947
    H     -0.22575216      2.40167654      1.11665173
    C     -1.76143222      2.68003227      2.59287502
    N     -2.67401537      2.31773928      3.18501296
    C     -0.70815531     -0.73804625     -0.57067494
    H     -1.19378613     -0.28719168      0.26943996
    H     -0.31935646     -1.69378036     -0.28729030
    H     -1.41301207     -0.86136059     -1.36620597
    C      0.44567923      0.16608496     -1.04270527
    N      1.30476148      0.83925174     -1.39415331
    C      1.49619530      0.01111288     -4.91144452
    H      2.01417215      0.79836208     -5.41823724
    H      0.90127007      0.42464955     -4.12407517
    H      0.86335183     -0.50321695     -5.60417323
    C      2.51776679     -0.97687244     -4.31825255
    N      3.27837319     -1.71247241     -3.87659416
    C      3.21887868      1.90239990      1.45592453
    H      3.03757587      2.01412244      2.50451766
    H      4.26377735      1.74292457      1.28963117
    H      2.66677054      1.06387415      1.08585662
    C      2.77056842      3.17798075      0.71869227
    N      2.43678105      4.12770867      0.16978934
    C     -2.19407651      0.59596811     -4.05480346
    H     -1.49281108      0.93296080     -3.32025400
    H     -2.50797471      1.42446468     -4.65477050
    H     -1.73155981     -0.14068925     -4.67795138
    C     -3.41727622     -0.02123034     -3.35163312
    N     -4.32800400     -0.48076265     -2.82809083
    C     -0.16479873      4.12077876     -1.94256401
    H      0.48198261      4.96178804     -1.80372065
    H      0.05057726      3.37910201     -1.20200485
    H     -1.18331358      4.43458055     -1.84740605
    C      0.06023959      3.52617314     -3.34520505
    N      0.22779085      3.08346223     -4.38953507
    C      1.20994639     -4.22605644     -2.56035302
    H      0.78811769     -5.20656322     -2.63496659
    H      1.44299833     -4.01492542     -1.53760693
    H      2.10322778     -4.17647442     -3.14728493
    C      0.19598453     -3.19008967     -3.08021282
    N     -0.55895616     -2.41876533     -3.46727207
    C     -0.64822587      1.69503400      6.18750484
    H     -1.48463651      1.58277579      5.52969368
    H     -0.85242187      2.47153734      6.89478530
    H     -0.47707863      0.77539047      6.70698872
    C      0.60314795      2.06261741      5.36863610
    N      1.53485263      2.33629997      4.75895110
    C      2.19014361     -1.17496667      3.99021206
    H      2.83214650     -0.41556352      4.38523018
    H      2.76450748     -1.85308402      3.39425727
    H      1.73145038     -1.70891127      4.79606736
    C      1.09965819     -0.52347523      3.11957984
    N      0.28774223     -0.03841024      2.47135459
    C      4.20403121     -1.26127813     -0.73761452
    H      4.71149022     -1.98256470     -1.34352805
    H      4.89832374     -0.81663596     -0.05559523
    H      3.78325221     -0.50234903     -1.36361032
    C      3.08001253     -1.95540881      0.05381749
    N      2.24312954     -2.47222065      0.64307460
    C     -4.66528799      0.98740260      0.42956222
    H     -4.99132001      0.13423280     -0.12784661
    H     -5.46129218      1.69994840      0.48918529
    H     -4.38456189      0.68286487      1.41614659
    C     -3.45442821      1.62810386     -0.27394364
    N     -2.55288807      2.10513506     -0.79773573
    C     -3.03621625     -0.95662133      3.68814596
    H     -2.59889827     -0.57120561      2.79086792
    H     -3.63676227     -0.19877054      4.14630069
    H     -3.64789387     -1.80222512      3.45212940
    C     -1.92092940     -1.38503390      4.65984442
    N     -1.09054764     -1.70400653      5.38331809
    C     -3.67951094     -3.55829186     -1.71173400
    H     -3.39832117     -4.58090725     -1.56999390
    H     -3.02261866     -3.10308364     -2.42319524
    H     -4.68518881     -3.51186491     -2.07416421
    C     -3.58222331     -2.80846847     -0.37013048
    N     -3.50978825     -2.25019087      0.62875432
