90
Energy:   -417.85210700
    C     -2.46134936     -4.53598490      1.28900181
    H     -2.84306007     -3.72289098      1.87044432
    H     -1.41704563     -4.65738049      1.48797900
    H     -2.98072079     -5.43475890      1.54853546
    C     -2.66748174     -4.23795021     -0.20775627
    N     -2.82095667     -4.01604984     -1.32216070
    C      4.38545616      1.35506024     -4.08846710
    H      3.62827475      1.98553264     -4.50569732
    H      4.14993468      0.33153852     -4.29299586
    H      5.33181302      1.59739427     -4.52502408
    C      4.45215989      1.57197798     -2.56528054
    N      4.50182386      1.73348310     -1.43119891
    C     -0.03141219      3.72916693      2.56914292
    H     -0.44406292      4.34738708      1.79945246
    H      0.80599774      3.18776830      2.18115939
    H      0.28761421      4.34201310      3.38617463
    C     -1.10190937      2.73655925      3.05941404
    N     -1.89894318      1.99751770      3.42444317
    C     -1.16371603     -0.75468622      0.32562241
    H     -0.90723393     -0.95879927     -0.69293293
    H     -2.01537156     -0.10765629      0.35618775
    H     -1.39448249     -1.67189379      0.82599847
    C      0.02502210     -0.07206094      1.02742322
    N      0.91009168      0.43618461      1.54994583
    C      0.24393390     -3.48384158     -2.86616468
    H      1.16013616     -3.46714180     -3.41860897
    H     -0.32447084     -2.60574878     -3.09148261
    H     -0.31954282     -4.35247379     -3.13611131
    C      0.55435123     -3.52149306     -1.35824444
    N      0.78547105     -3.54952629     -0.23552928
    C      4.05113064      1.82723195      1.92068265
    H      4.98549801      2.00317521      1.42986521
    H      3.87035205      2.60502728      2.63289935
    H      3.26393234      1.81715941      1.19603344
    C      4.09950328      0.46905584      2.64498766
    N      4.13551892     -0.54216800      3.18426567
    C     -4.26102271      2.10536293      0.61347091
    H     -4.48754377      1.15391817      0.17948790
    H     -5.00356134      2.81741879      0.31934180
    H     -4.25310318      2.01816485      1.67988212
    C     -2.87769691      2.57540489      0.12657227
    N     -1.84774798      2.92537250     -0.23594590
    C      1.43737709      3.34089447     -0.90352625
    H      0.76782543      4.08930578     -0.53409256
    H      2.42345140      3.53076287     -0.53405835
    H      1.11208610      2.37668924     -0.57277992
    C      1.44999698      3.37820788     -2.44302242
    N      1.45939307      3.40598941     -3.58924729
    C      3.59783576     -1.44924505     -0.42101871
    H      4.50624626     -0.94131881     -0.17262089
    H      3.52624571     -2.35159454      0.14954184
    H      2.76345385     -0.81814185     -0.19648661
    C      3.59432609     -1.78988784     -1.92286763
    N      3.59171298     -2.04351189     -3.04106241
    C      1.02405015      0.18161244      5.02279834
    H      0.24232128      0.09197131      4.29770206
    H      0.61651915      0.05546853      6.00407571
    H      1.76390598     -0.57052386      4.84446316
    C      1.67085720      1.57469810      4.91075821
    N      2.15243444      2.61191370      4.82733924
    C      1.89160665     -2.99367142      2.81130553
    H      2.01913089     -3.93610138      2.32093474
    H      2.50352087     -2.96235350      3.68850520
    H      2.17856161     -2.20471159      2.14790646
    C      0.41436473     -2.81786322      3.20936057
    N     -0.68550902     -2.68696602      3.50573063
    C      0.88935167     -0.01911027     -4.87384166
    H      1.66136384     -0.67567691     -5.21708742
    H      1.04151035      0.95653039     -5.28599713
    H     -0.06280136     -0.39390810     -5.18661999
    C      0.92962518      0.06109049     -3.33645885
    N      0.95961063      0.12080361     -2.19180748
    C     -1.91615746      2.55444306     -3.71336137
    H     -1.68398118      3.59188220     -3.83466421
    H     -1.79523683      2.05008952     -4.64925923
    H     -1.25734318      2.12390078     -2.98845021
    C     -3.37255572      2.40685705     -3.23511199
    N     -4.45691043      2.29697256     -2.87903359
    C     -3.35900371     -0.83292732      4.32968166
    H     -2.31381061     -0.60473925      4.34972552
    H     -3.53985514     -1.72624458      4.89019582
    H     -3.90918834     -0.02326306      4.76169989
    C     -3.81115583     -1.04095015      2.87232619
    N     -4.14780364     -1.19583260      1.78725880
    C     -4.41876997     -1.18208627     -1.96954038
    H     -4.92586144     -2.08252693     -2.24696612
    H     -5.08013514     -0.34933038     -2.08791616
    H     -4.10779814     -1.24816202     -0.94786059
    C     -3.18463063     -0.98957078     -2.87033886
    N     -2.26575780     -0.84623424     -3.54102426
