90
Energy:   -421.11765961
    C     -0.44450315     -4.42195776     -3.57989920
    H     -0.98804778     -3.72154148     -4.17896217
    H     -0.06898442     -5.20742932     -4.20192749
    H      0.37298109     -3.92370740     -3.10202350
    C     -1.37923935     -5.01665086     -2.51022244
    N     -2.07519293     -5.45942691     -1.71379947
    C      3.83207600      3.04856926      0.08872461
    H      4.71975010      2.49365428      0.31009363
    H      2.98112574      2.53113963      0.47993980
    H      3.89671313      4.01827769      0.53637032
    C      3.68619172      3.19628887     -1.43721664
    N      3.57757425      3.30627284     -2.57334926
    C      0.00773674      0.32708984      1.39054258
    H      0.63268307      1.19017356      1.48764439
    H      0.60298942     -0.51349299      1.10072564
    H     -0.46597397      0.12246451      2.32789295
    C     -1.06665027      0.58921334      0.31882255
    N     -1.86658024      0.78437621     -0.47912172
    C      0.35719869     -0.45486242     -3.08934747
    H     -0.57602053      0.05926403     -2.99098045
    H      0.19701487     -1.50772581     -2.98581528
    H      0.77699601     -0.25094035     -4.05220005
    C      1.32668911      0.02702159     -1.99414149
    N      2.04851879      0.38580614     -1.17871085
    C      3.29439217     -2.85009442     -0.15937582
    H      4.28985429     -2.51698723      0.04797638
    H      3.15098297     -3.82572556      0.25592740
    H      2.59266131     -2.17015619      0.27669402
    C      3.07804036     -2.90394310     -1.68315146
    N      2.91695660     -2.94403589     -2.81767169
    C      0.30995644      3.89713762      3.67381420
    H      0.76756781      3.90852619      4.64095550
    H     -0.05068720      4.87661637      3.43832186
    H      1.03035364      3.59678474      2.94188858
    C     -0.86644016      2.90331123      3.67421238
    N     -1.74232090      2.16336232      3.67450884
    C     -4.21437498      1.38072654     -3.04795089
    H     -3.15540904      1.31476361     -2.90960275
    H     -4.46826839      2.36013034     -3.39609657
    H     -4.52583084      0.65404128     -3.76893832
    C     -4.92481524      1.11193758     -1.70831395
    N     -5.45377030      0.91181198     -0.71089335
    C     -0.04413850      3.36213730     -2.35779100
    H     -0.34126400      4.28736896     -2.80563360
    H     -0.81593334      2.63428491     -2.49729988
    H      0.85861909      3.01724443     -2.81711302
    C      0.19501204      3.57444699     -0.85136091
    N      0.37307048      3.73252120      0.27024476
    C      4.01930100     -0.07967632      2.12754327
    H      3.61359951     -0.04654936      1.13799333
    H      4.08280714     -1.09696131      2.45311556
    H      4.99642467      0.35636073      2.12719785
    C      3.10547723      0.70920955      3.08367360
    N      2.42509390      1.29657094      3.79555608
    C     -3.40108124      3.66265399      0.84049105
    H     -4.29352199      3.08976926      0.98280333
    H     -3.44321623      4.54459583      1.44489350
    H     -2.55196097      3.07641033      1.12370870
    C     -3.27808903      4.06159612     -0.64184430
    N     -3.18651573      4.35862666     -1.74551035
    C     -4.22791656      0.18861554      2.41218111
    H     -4.25370737      0.82705412      3.27045333
    H     -5.20165005     -0.22156888      2.24338856
    H     -3.92587117      0.75442409      1.55571840
    C     -3.22406655     -0.95424319      2.65251227
    N     -2.47665458     -1.80515346      2.83144974
    C      4.84560021      0.06220155     -3.39471098
    H      4.79049031      1.08314101     -3.71021961
    H      3.88422761     -0.39578255     -3.49917327
    H      5.55711352     -0.46011644     -3.99955130
    C      5.28452867      0.00371402     -1.91974622
    N      5.61133085     -0.03983260     -0.82156792
    C     -3.57616017     -2.28314213     -0.77807439
    H     -3.65209609     -3.34222209     -0.64584899
    H     -4.53075578     -1.83251852     -0.60318963
    H     -2.86275923     -1.88750146     -0.08566798
    C     -3.11972840     -1.97684609     -2.21663366
    N     -2.77989419     -1.74879477     -3.28770643
    C      0.18711413     -1.27050523      4.94503585
    H      0.69355510     -1.33795631      5.88517844
    H     -0.76846398     -1.74609873      5.01973778
    H      0.05387145     -0.24124162      4.68472466
    C      1.02530722     -1.97029838      3.85906998
    N      1.64938008     -2.49132619      3.05051902
    C     -0.68054257     -4.52089379      1.44112755
    H      0.18816181     -4.71518012      2.03484946
    H     -0.98564238     -5.42129124      0.95011061
    H     -1.47223484     -4.17217330      2.07082307
    C     -0.35226620     -3.44726238      0.38701644
    N     -0.10784951     -2.64789500     -0.39781719
