90
Energy:   -417.60016892
    C     -2.38719399     -4.51938754      1.11228528
    H     -2.96807054     -5.36778846      1.40842459
    H     -2.75648622     -3.64457120      1.60545736
    H     -1.36378113     -4.67594244      1.38249959
    C     -2.49261088     -4.33208365     -0.41264244
    N     -2.57109855     -4.19262739     -1.54802044
    C      4.85999669      1.38680474     -3.55871526
    H      4.03314958      1.98534436     -3.87961146
    H      4.73514604      0.38565400     -3.91509791
    H      5.76851485      1.79418379     -3.95055217
    C      4.92214316      1.37994249     -2.01998503
    N      4.96841402      1.37483323     -0.87433043
    C     -1.37445680      4.16190979      2.27779197
    H     -0.81297506      4.87429251      2.84537394
    H     -2.00287372      4.67647975      1.58122250
    H     -0.70297619      3.52056310      1.74610851
    C     -2.24455188      3.31907339      3.22866598
    N     -2.89237721      2.69154339      3.93663491
    C     -1.71600816     -0.83422420     -0.41816912
    H     -2.71384518     -1.18148137     -0.24895350
    H     -1.07548547     -1.66947440     -0.61048887
    H     -1.70579763     -0.17537297     -1.26120523
    C     -1.21643728     -0.08054949      0.82842759
    N     -0.84448405      0.48059560      1.75657550
    C      0.61459954     -3.70909306     -2.91325265
    H      1.53422170     -3.42466363     -3.38047334
    H     -0.14215637     -2.99005844     -3.14821820
    H      0.31535121     -4.67188439     -3.27155752
    C      0.81088815     -3.76763146     -1.38693551
    N      0.95703394     -3.81121596     -0.25052301
    C      4.91076347      2.58635881      2.29709144
    H      5.97131964      2.45202302      2.34264012
    H      4.60539827      3.27431528      3.05759594
    H      4.64121643      2.97360832      1.33673666
    C      4.21179798      1.23220668      2.51917079
    N      3.69138640      0.22397886      2.68451896
    C     -4.58718749      1.82184930      0.80188618
    H     -5.37562817      1.34492826      1.34576834
    H     -4.74629787      2.87994315      0.79737048
    H     -3.64937956      1.60418478      1.26883106
    C     -4.57316467      1.29866818     -0.64645248
    N     -4.56272404      0.90913605     -1.72480645
    C      1.70007846      2.42923195      0.05661498
    H      2.11010951      3.22291176      0.64555222
    H      2.25715598      1.53221834      0.22961879
    H      0.67781173      2.27277205      0.33118757
    C      1.77946515      2.80314133     -1.43519249
    N      1.83857215      3.08153386     -2.54591096
    C      3.84943997     -1.80513857     -0.14177046
    H      4.75464689     -1.38964560      0.24921063
    H      3.67059045     -2.75867829      0.30953203
    H      3.03274736     -1.14887313      0.07554946
    C      3.97945541     -1.97528541     -1.66681015
    N      4.07625780     -2.10196747     -2.80227151
    C      0.66836462      1.17942376      4.61593661
    H     -0.39744290      1.20490203      4.52480286
    H      0.93727314      1.15284758      5.65125347
    H      1.04742593      0.30671063      4.12646401
    C      1.26973965      2.43706067      3.96149221
    N      1.71749068      3.37342852      3.47422860
    C      1.43962759     -2.24218242      2.64987124
    H      1.33160409     -1.48511934      1.90148190
    H      1.85595140     -3.12341269      2.20827552
    H      2.08984357     -1.88931293      3.42291806
    C      0.06007818     -2.57134335      3.24995167
    N     -0.96705905     -2.81641863      3.69673883
    C      1.54126659     -0.07514449     -4.49832493
    H      2.40736544     -0.63522960     -4.78306628
    H      1.69438502      0.95898450     -4.72642815
    H      0.68992777     -0.43677775     -5.03623075
    C      1.29964670     -0.23693202     -2.98602713
    N      1.11974970     -0.35739019     -1.86005269
    C     -1.63358714      2.31624257     -3.39518922
    H     -0.82853712      1.62573932     -3.53661026
    H     -1.47752334      3.17706076     -4.01125352
    H     -2.55697706      1.84753181     -3.66455954
    C     -1.68788145      2.74571025     -1.91728203
    N     -1.72830604      3.06546846     -0.81691296
    C     -3.34818791     -0.60956886      4.24295594
    H     -4.00451402      0.11917455      4.67082186
    H     -2.38057396     -0.17652373      4.09771740
    H     -3.26820282     -1.44839839      4.90240003
    C     -3.91132946     -1.07438927      2.88707482
    N     -4.33061393     -1.42046919      1.87755970
    C     -4.21268248     -1.95673487     -3.34713340
    H     -4.28534950     -1.92608630     -2.28004373
    H     -4.33124186     -2.96542070     -3.68387615
    H     -4.97988678     -1.34551393     -3.77457417
    C     -2.83325629     -1.42879266     -3.78309258
    N     -1.80621079     -1.03571569     -4.10768400
