90
Energy:   -417.45040470
    C     -1.88838082     -4.63152744      0.13826604
    H     -2.46390434     -5.46274136      0.48863195
    H     -2.31977553     -3.72142704      0.49953460
    H     -0.88379200     -4.71692039      0.49660726
    C     -1.88502822     -4.62216294     -1.40170183
    N     -1.88253206     -4.61519066     -2.54827792
    C      4.04347041      2.67260350     -3.30145291
    H      4.16774557      1.70053936     -3.73104245
    H      4.74232024      3.35061030     -3.74509101
    H      3.04713047      3.01799729     -3.48286115
    C      4.29277088      2.59871724     -1.78356289
    N      4.47838642      2.54370556     -0.65342478
    C     -0.91949744      3.43504434      3.29612398
    H     -1.43043061      4.11955248      2.65168928
    H      0.03501323      3.19487663      2.87644799
    H     -0.78350970      3.88428240      4.25768083
    C     -1.75363965      2.14895698      3.44372511
    N     -2.37469643      1.19140648      3.55362086
    C     -1.06742714     -0.56310661      0.07217479
    H     -1.83770763      0.15255379     -0.12631542
    H     -1.49400400     -1.42579890      0.53982132
    H     -0.60128046     -0.84967120     -0.84732893
    C     -0.01574816      0.06094933      1.00819055
    N      0.76727464      0.52558735      1.70509684
    C      1.15647223     -3.19743403     -3.43092725
    H      0.30469255     -2.67122083     -3.80838085
    H      1.09850313     -4.22540748     -3.72214757
    H      2.04942379     -2.76349469     -3.82996768
    C      1.18064774     -3.09982247     -1.89421403
    N      1.19864750     -3.02714621     -0.75006119
    C      3.76591596      2.07832833      2.65022545
    H      4.69145047      2.38107845      2.20679741
    H      3.55450255      2.70070518      3.49453020
    H      2.97859978      2.17235602      1.93176105
    C      3.87126238      0.61150484      3.10731515
    N      3.94969757     -0.48061192      3.44763921
    C     -4.43258771      1.68479043      0.75999343
    H     -5.36064598      1.45774964      1.24172003
    H     -4.17835597      2.70844069      0.94000859
    H     -3.66347827      1.05214460      1.15131047
    C     -4.56972411      1.44880493     -0.75562672
    N     -4.67182839      1.27310300     -1.88407482
    C      1.15431713      3.51679364     -0.30827292
    H      1.66911576      2.60356582     -0.09403590
    H      1.46684705      4.27269214      0.38153980
    H      1.38158926      3.82868586     -1.30625575
    C     -0.36352221      3.29433821     -0.17307927
    N     -1.49362259      3.12871003     -0.07242144
    C      3.84038809     -0.81652174     -0.23241497
    H      4.62340921     -0.20413235      0.16351095
    H      3.87721107     -1.78286892      0.22553295
    H      2.89381748     -0.36111680     -0.02867613
    C      4.02277986     -0.96253007     -1.75458934
    N      4.15857882     -1.07123990     -2.88791735
    C      0.64340864     -0.36548291      5.06666886
    H     -0.06765401     -0.44802854      4.27138507
    H      0.19006326     -0.67755607      5.98426757
    H      1.48779327     -0.98807070      4.85619765
    C      1.10400394      1.09853676      5.19354823
    N      1.44693807      2.18856595      5.28801569
    C      1.94654349     -2.96437929      2.44809792
    H      2.19240329     -2.03621146      1.97591403
    H      2.23252034     -3.77527654      1.81126044
    H      2.46893755     -3.04044808      3.37880575
    C      0.42923662     -3.02367916      2.70473656
    N     -0.70046732     -3.06783062      2.89581569
    C      1.34417249      0.25727131     -4.74538552
    H      2.23747340     -0.28952540     -4.96430792
    H      1.35911709      1.18969123     -5.27004622
    H      0.49264003     -0.31222739     -5.05435605
    C      1.26254794      0.52191504     -3.23049241
    N      1.20177476      0.71895433     -2.10258563
    C     -1.97578412      2.55377021     -3.40770149
    H     -1.83632624      1.80329838     -2.65787237
    H     -2.35423917      2.10044888     -4.29998544
    H     -2.67338179      3.28463350     -3.05542967
    C     -0.62778530      3.23443690     -3.70968165
    N      0.37586110      3.74122420     -3.93451961
    C     -3.72290473     -1.84473017      3.75520262
    H     -4.40962156     -1.18559483      4.24393646
    H     -2.72049286     -1.53361744      3.96323727
    H     -3.86866976     -2.84200257      4.11450666
    C     -3.96747733     -1.80583525      2.23524491
    N     -4.14957274     -1.77687621      1.10356731
    C     -4.03411468     -1.90811237     -2.66827695
    H     -4.84341161     -1.31539994     -3.04060830
    H     -4.04882347     -1.90000154     -1.59840922
    H     -4.13779520     -2.91374188     -3.01878904
    C     -2.69893760     -1.32549293     -3.16773339
    N     -1.70483757     -0.89170627     -3.53960142
