90
Energy:   -417.44711246
    C     -1.94223967     -5.42174648      0.99785632
    H     -2.44124821     -6.22816490      0.50229604
    H     -2.27991157     -5.36241971      2.01144258
    H     -0.88613628     -5.59300615      0.98319912
    C     -2.25804527     -4.10000473      0.27338026
    N     -2.49317690     -3.11590791     -0.26602510
    C      4.87071314      1.58688209     -3.78417674
    H      4.10388647      2.21923324     -4.18042044
    H      4.72120151      0.58539037     -4.12995082
    H      5.82703820      1.93810620     -4.11125943
    C      4.81316198      1.61266842     -2.24546854
    N      4.77031252      1.63186752     -1.09983035
    C     -0.47953117      3.70747183      2.68615822
    H     -0.03477863      4.00549899      3.61258963
    H     -1.05240550      4.51886449      2.28821848
    H      0.28892068      3.43907026      1.99165016
    C     -1.40112941      2.49703208      2.92509813
    N     -2.08730120      1.59580466      3.10299975
    C     -1.59212266      0.25479377     -0.09066922
    H     -1.85999558      1.17820786      0.37885255
    H     -2.44975352     -0.38328176     -0.13787105
    H     -1.23657093      0.44827137     -1.08114813
    C     -0.48396529     -0.43434482      0.72705644
    N      0.34110824     -0.94743983      1.33589036
    C      0.20719317     -2.73105808     -2.32839306
    H     -0.72923175     -3.09943896     -2.69212933
    H      0.89105124     -2.62735823     -3.14477751
    H      0.05953829     -1.77864290     -1.86363241
    C      0.78321432     -3.72088289     -1.29880747
    N      1.21208824     -4.45785245     -0.53223420
    C      2.96345242      1.30404727      1.77528111
    H      3.85653539      1.83285492      1.51515526
    H      2.33390056      1.93617702      2.36602261
    H      2.44576144      1.01804068      0.88359990
    C      3.32925329      0.04479871      2.58279753
    N      3.60160867     -0.89276909      3.18403021
    C     -4.55862997      2.81359575      0.88074745
    H     -4.40415313      1.96938625      1.51976811
    H     -5.53134157      3.22234364      1.05866988
    H     -3.81653574      3.55666253      1.08580111
    C     -4.44904431      2.37087347     -0.59016654
    N     -4.36745281      2.04124661     -1.68532887
    C      2.27086070      4.06605610     -0.66938946
    H      3.29634418      3.99802425     -0.37163876
    H      1.72056316      3.25439119     -0.24128691
    H      1.86123621      4.99384438     -0.32833849
    C      2.17650106      3.99684012     -2.20493673
    N      2.10624601      3.94530568     -3.34822146
    C      3.65957543     -1.74965839     -0.41052975
    H      4.45879287     -1.13641743     -0.04985373
    H      3.80293959     -2.75575564     -0.07569527
    H      2.72839244     -1.37848933     -0.03632277
    C      3.64316991     -1.71844493     -1.95012599
    N      3.63095526     -1.69520510     -3.09642537
    C      0.36249724     -0.64843413      4.87653192
    H     -0.15802289     -0.84828098      5.78977899
    H      1.18532624     -1.32550837      4.77946484
    H     -0.30481989     -0.77727626      4.05010186
    C      0.88783722      0.79911561      4.89128438
    N      1.27897672      1.87688220      4.90226826
    C      1.95189592     -3.77985194      2.64875111
    H      2.64096487     -3.59595111      3.44641311
    H      2.03211488     -2.99947789      1.92109710
    H      2.17936940     -4.71960058      2.19046364
    C      0.51730211     -3.81515143      3.20758431
    N     -0.55081819     -3.84143351      3.62366102
    C      1.20966477      0.57101669     -4.41804847
    H      1.42365562      1.51672901     -4.87052643
    H      0.22887230      0.25270919     -4.70375034
    H      1.92832215     -0.15135691     -4.74455581
    C      1.27895662      0.70770100     -2.88569210
    N      1.33054754      0.80946867     -1.74478313
    C     -1.48094487      3.09801298     -3.14339403
    H     -0.67873090      3.50500058     -3.72280238
    H     -2.41113950      3.49256225     -3.49548480
    H     -1.48600081      2.03241612     -3.24022818
    C     -1.28947126      3.47806266     -1.66336022
    N     -1.14691045      3.76102693     -0.56140777
    C     -3.15287865     -1.69179528      3.04497706
    H     -2.97617826     -0.97714278      3.82147494
    H     -2.23171983     -1.91318266      2.54763094
    H     -3.55327165     -2.58848062      3.46987697
    C     -4.15671037     -1.11117070      2.03166715
    N     -4.90410871     -0.67886931      1.27721186
    C     -4.44506707     -1.24389955     -2.44289811
    H     -4.75861778     -2.19748341     -2.81338963
    H     -5.17501018     -0.50442357     -2.69835346
    H     -4.34222232     -1.29089997     -1.37889012
    C     -3.09123320     -0.86809811     -3.07337977
    N     -2.08324235     -0.58829686     -3.54280203
