90
Energy:   -417.40443298
    C     -2.21369795     -3.79598538     -0.07959927
    H     -1.66023748     -4.59660270      0.36491575
    H     -3.24439630     -3.87911537      0.19544508
    H     -1.82675967     -2.86008227      0.26574580
    C     -2.08373377     -3.87105089     -1.61226835
    N     -1.98696954     -3.92694058     -2.75341014
    C      3.67904938      1.35319025     -3.25442562
    H      2.64986984      1.39728862     -2.96503834
    H      3.85943458      0.44670024     -3.79353240
    H      3.91037035      2.19120523     -3.87822092
    C      4.56775102      1.38827447     -1.99721502
    N      5.22942979      1.41439627     -1.06116458
    C     -1.68634213      4.78334215      2.58734744
    H     -1.75547518      5.38379896      3.47028143
    H     -2.22248807      5.25648097      1.79136611
    H     -0.65874803      4.67422186      2.30978264
    C     -2.29416127      3.39521617      2.86168693
    N     -2.74671025      2.36169328      3.06594515
    C     -0.57533274      0.32989966      0.96228111
    H     -1.26437903      1.14623528      1.02320358
    H     -0.25317328      0.06087550      1.94652619
    H     -1.05546117     -0.50854844      0.50251968
    C      0.64373824      0.74891952      0.11973240
    N      1.55139199      1.06089886     -0.50758340
    C      1.45680138     -5.30993704     -2.66999662
    H      0.61334770     -4.92646465     -3.20519285
    H      1.82847304     -6.18149058     -3.16714215
    H      2.22452442     -4.56551470     -2.63344791
    C      1.03086675     -5.67887737     -1.23679645
    N      0.71373906     -5.95357021     -0.16971378
    C      4.01352624      1.61876653      2.05477748
    H      5.05727953      1.40482106      1.95625546
    H      3.87620495      2.40387281      2.76867530
    H      3.62132328      1.92532327      1.10762444
    C      3.27341953      0.35550714      2.53228955
    N      2.72237644     -0.58504689      2.88781899
    C     -4.36728265      2.19299180     -0.05912222
    H     -3.49246343      1.62050525      0.16858520
    H     -5.23370576      1.67912955      0.30164871
    H     -4.29902124      3.15129301      0.41193857
    C     -4.47761235      2.37728496     -1.58406923
    N     -4.55975783      2.51449960     -2.71946159
    C      2.02690620      4.41994056      0.38796443
    H      1.52617709      5.33070465      0.64228567
    H      2.99629865      4.40743910      0.84075696
    H      1.45622758      3.58776329      0.74392229
    C      2.17373219      4.32482685     -1.14206679
    N      2.28305082      4.25401037     -2.28124457
    C      4.12052487     -1.81351718     -0.17277949
    H      4.24613068     -2.73735740      0.35223727
    H      3.21152352     -1.34505547      0.14211614
    H      4.94674399     -1.16755041      0.03932427
    C      4.05889084     -2.08782228     -1.68689902
    N      4.01300150     -2.29205489     -2.81422984
    C     -0.00006501      0.69098748      4.82224529
    H     -1.06724766      0.71925190      4.74997835
    H      0.28942648      0.74869297      5.85072176
    H      0.36187865     -0.22340593      4.40060497
    C      0.59830163      1.88330019      4.05286388
    N      1.04381280      2.77103120      3.48002444
    C      1.51625139     -3.71408463      2.25145870
    H      1.75144173     -3.48802575      1.23239881
    H      1.38459713     -4.77025978      2.36127811
    H      2.31551853     -3.38670889      2.88304105
    C      0.21688733     -2.99051281      2.65107957
    N     -0.75054828     -2.45178069      2.94861547
    C      0.63419367     -1.33607803     -3.42868709
    H      1.51894998     -1.59569719     -3.97155387
    H      0.54808438     -0.27087861     -3.37544711
    H     -0.22197051     -1.73857862     -3.92856232
    C      0.71697555     -1.91621244     -2.00454130
    N      0.77861043     -2.34814889     -0.94420003
    C     -0.79358960      2.84761775     -2.97250836
    H     -0.11056677      2.02427713     -2.95036720
    H     -0.35927267      3.65666413     -3.52179139
    H     -1.70379706      2.54332879     -3.44561480
    C     -1.09170580      3.30614020     -1.53289595
    N     -1.31366685      3.64753101     -0.46103907
    C     -3.64926544     -0.86771664      3.17278913
    H     -4.34534677     -0.21545091      3.65747498
    H     -2.66951419     -0.43986224      3.21668900
    H     -3.64643331     -1.81685686      3.66677690
    C     -4.06161493     -1.05623015      1.70104508
    N     -4.36862786     -1.19658702      0.60526473
    C     -4.29771086     -1.20577401     -2.93690497
    H     -4.86604009     -0.48129408     -3.48191038
    H     -4.87886444     -1.57092213     -2.11603565
    H     -4.04323197     -2.01938352     -3.58357271
    C     -3.00957196     -0.55195256     -2.40322372
    N     -2.05049400     -0.06515276     -2.00587376
