90
Energy:   -417.24693705
    C     -2.03306169     -4.64811318      1.59641074
    H     -2.53946325     -3.84130099      2.08376248
    H     -0.99282384     -4.61853587      1.84526713
    H     -2.45081885     -5.57862580      1.91971296
    C     -2.20012914     -4.51264604      0.07150513
    N     -2.32451845     -4.41178459     -1.06385641
    C      4.95983341      1.34624531     -3.62934302
    H      5.63455862      1.97502234     -4.17182391
    H      3.97098250      1.46226754     -4.02127646
    H      5.26541462      0.32563728     -3.72873344
    C      4.97213109      1.74320449     -2.14143436
    N      4.98128727      2.03875863     -1.03361873
    C     -0.86810104      3.86911361      1.79763328
    H     -0.73397663      4.66748022      2.49729147
    H     -1.27368189      4.25744449      0.88680816
    H      0.07608277      3.40656081      1.59898553
    C     -1.83632731      2.82688473      2.38746111
    N     -2.55721577      2.05089796      2.82661474
    C     -1.04847048     -0.66802072      0.17412550
    H     -1.96437529     -0.11531581      0.15097726
    H     -1.22581185     -1.63466091      0.59727544
    H     -0.67302842     -0.77805860     -0.82178314
    C     -0.01536729      0.08611029      1.03178756
    N      0.75382500      0.64759511      1.67035595
    C      0.72866112     -3.39782139     -2.41976066
    H      1.60847815     -3.70962962     -2.94282643
    H      0.49054675     -2.39056307     -2.69111157
    H     -0.08709741     -4.03958152     -2.67972420
    C      0.97917191     -3.47509495     -0.90223862
    N      1.16568859     -3.53262862      0.22762552
    C      3.73044927      2.36979080      2.16879392
    H      4.72550883      2.57533023      1.83336851
    H      3.33818898      3.22993970      2.66996735
    H      3.11215916      2.13408381      1.32792612
    C      3.75274456      1.17523596      3.14046344
    N      3.76934442      0.28583558      3.86391556
    C     -4.81577233      1.56907864      0.22220855
    H     -5.52396620      0.93633071      0.71515042
    H     -4.99447238      2.58729021      0.49827122
    H     -3.82470753      1.28940659      0.51285127
    C     -4.96570081      1.41681759     -1.30289408
    N     -5.07732937      1.30345232     -2.43840231
    C      1.63374916      3.23098872     -1.05098512
    H      2.61996447      3.49743045     -0.73272681
    H      1.33193051      2.32942938     -0.56007236
    H      0.95345344      4.01814550     -0.80102305
    C      1.62784686      3.01216561     -2.57534781
    N      1.62345233      2.84924185     -3.71030512
    C      3.95535782     -1.20401979      0.08252661
    H      3.86082073     -2.26950729      0.10897064
    H      3.84841365     -0.81178857      1.07228249
    H      4.91803188     -0.94083327     -0.30333686
    C      2.85980728     -0.61382480     -0.82468829
    N      2.04412009     -0.17439781     -1.50015103
    C      0.31964519      0.91895430      5.02990412
    H     -0.39345008      0.59369532      4.30147986
    H     -0.13875359      0.93222532      5.99664790
    H      1.15206911      0.24673014      5.03907942
    C      0.80765358      2.33548653      4.67369596
    N      1.17099801      3.39015916      4.40848280
    C      1.92223720     -2.44145488      3.26822816
    H      2.20645234     -1.69794515      2.55316508
    H      2.17985980     -3.41104395      2.89617073
    H      2.43636165     -2.26490243      4.18985953
    C      0.40243831     -2.37017308      3.50640924
    N     -0.72912105     -2.31710055      3.68374588
    C      1.15148629     -0.31481381     -4.86672458
    H      1.38440204      0.52027426     -5.49384367
    H      0.73945882      0.03623219     -3.94374075
    H      0.43902197     -0.94301923     -5.35932142
    C      2.43469158     -1.11781543     -4.58357695
    N      3.39009624     -1.71568664     -4.37276066
    C     -1.91102493      2.18021455     -3.82300817
    H     -2.75917950      1.56857523     -4.04979297
    H     -1.02737438      1.72614525     -4.22035170
    H     -2.04212874      3.14803082     -4.26009231
    C     -1.77342086      2.32110659     -2.29565275
    N     -1.67096837      2.42600711     -1.15846723
    C     -3.70737174     -0.83939560      3.95666000
    H     -2.72375509     -0.43421457      4.07166783
    H     -3.81887107     -1.69153682      4.59409418
    H     -4.43179285     -0.09806950      4.22227018
    C     -3.91994426     -1.26306322      2.49142327
    N     -4.07821415     -1.57850302      1.40048792
    C     -4.17337190     -2.00267802     -2.37621698
    H     -4.20824398     -1.84000731     -1.31922958
    H     -4.27661487     -3.04804605     -2.57979904
    H     -4.97181532     -1.46725900     -2.84601872
    C     -2.82542540     -1.50285598     -2.92832039
    N     -1.82181797     -1.13071575     -3.33938647
