90
Energy:   -417.07241432
    C     -3.00811701     -4.79698695      0.54478842
    H     -3.65444674     -5.61809980      0.77485742
    H     -3.33323148     -3.92728998      1.07660309
    H     -2.00701175     -5.03894145      0.83486665
    C     -3.05080681     -4.51867766     -0.96925303
    N     -3.08259131     -4.31146374     -2.09652571
    C      4.51430532      1.46325890     -3.52078964
    H      3.81728873      0.74012275     -3.88976412
    H      5.49332274      1.23405408     -3.88669828
    H      4.22759335      2.43822588     -3.85565490
    C      4.52108583      1.43069431     -1.98114891
    N      4.52613423      1.40644850     -0.83481641
    C     -0.04051210      3.15388694      2.40444261
    H     -0.30107541      4.13171255      2.05678759
    H      0.23542043      2.54109898      1.57182550
    H      0.78318163      3.22460181      3.08372689
    C     -1.24813767      2.52672791      3.12549187
    N     -2.14726980      2.05977951      3.66234583
    C     -0.97064253     -1.27597228     -0.35266369
    H     -1.68916096     -0.58239018     -0.73681903
    H     -1.43387528     -2.23089689     -0.21689364
    H     -0.15907357     -1.36828754     -1.04384588
    C     -0.43785591     -0.76696856      0.99961351
    N     -0.04117206     -0.38799216      2.00644536
    C      0.30676669     -4.23352713     -3.29402466
    H      0.82685425     -5.07437941     -3.70314145
    H      0.73330168     -3.32978745     -3.67641397
    H     -0.72603652     -4.28469757     -3.56897594
    C      0.43080262     -4.25039081     -1.75912053
    N      0.52315301     -4.26294659     -0.61631463
    C      3.20952235      1.14593723      2.37000950
    H      4.15082714      1.30683361      1.88735245
    H      3.06087700      1.89422682      3.12025369
    H      2.42317380      1.20485860      1.64676450
    C      3.20043936     -0.24741612      3.02581734
    N      3.19367667     -1.28483103      3.51409609
    C     -3.08691850      2.11084975      0.19892839
    H     -2.40767059      1.45534680      0.70275210
    H     -4.09261543      1.83530430      0.43881893
    H     -2.90878323      3.11836018      0.51212109
    C     -2.87345719      2.00080142     -1.32223026
    N     -2.71452554      1.91886544     -2.45480201
    C      2.69946547      4.32543088     -0.03176059
    H      1.91240140      4.93120817      0.36631503
    H      3.64470061      4.72135900      0.27592522
    H      2.59708664      3.32402805      0.33102038
    C      2.61916622      4.32499541     -1.56966560
    N      2.55937978      4.32467118     -2.71470579
    C      2.98074803     -1.65543775     -0.17966038
    H      3.99405773     -1.42731331      0.07736663
    H      2.74066554     -2.64206352      0.15772529
    H      2.32659208     -0.94953822      0.28797723
    C      2.80937412     -1.57973036     -1.70822159
    N      2.68177846     -1.52336276     -2.84630489
    C      0.06996513     -0.48499148      5.38892179
    H     -0.95335756     -0.29691384      5.13924671
    H      0.12601984     -0.90458930      6.37161942
    H      0.48880204     -1.17181876      4.68341275
    C      0.85929731      0.83674475      5.34932286
    N      1.44699099      1.82083744      5.31983965
    C      1.09263208     -3.79106871      2.73253553
    H      1.42980046     -2.95041967      2.16286294
    H      1.23921072     -4.68729288      2.16667688
    H      1.64899240     -3.85011681      3.64460769
    C     -0.40434762     -3.62609662      3.05415017
    N     -1.51891706     -3.50326741      3.29360688
    C      0.64542599      1.35485735     -3.59224803
    H      1.20113363      2.15694636     -4.03127244
    H     -0.38655639      1.44794114     -3.85916911
    H      1.02376931      0.42051895     -3.95108947
    C      0.78637430      1.41122665     -2.05974809
    N      0.89131672      1.45319616     -0.91873222
    C     -0.91262391      4.86554716     -3.26929376
    H      0.07249143      4.99365289     -3.66683229
    H     -1.52438097      5.69454295     -3.55811614
    H     -1.33609108      3.95987499     -3.65051884
    C     -0.84050442      4.79152723     -1.73276526
    N     -0.78680818      4.73641602     -0.58874995
    C     -3.60543269     -0.92532591      3.34431399
    H     -4.13982610     -0.08154620      3.72818855
    H     -2.55604270     -0.78235956      3.49676184
    H     -3.92262326     -1.81067855      3.85464716
    C     -3.89012602     -1.07125690      1.83790971
    N     -4.10209315     -1.17990915      0.71632325
    C     -3.92212203     -1.24014121     -3.14540883
    H     -4.43447354     -2.05576241     -3.61141116
    H     -4.34070141     -0.31560554     -3.48441352
    H     -4.02915069     -1.31189399     -2.08319629
    C     -2.42823352     -1.29362637     -3.51559319
    N     -1.31596562     -1.33344850     -3.79121226
