90
Energy:   -416.84339669
    C     -2.01666633     -4.55504479      0.18896580
    H     -2.21989787     -5.59776677      0.06118474
    H     -2.84648917     -4.08699706      0.67602274
    H     -1.13749440     -4.43364438      0.78664275
    C     -1.79519025     -3.90266815     -1.18833339
    N     -1.63029124     -3.41694409     -2.21379525
    C      4.06381055      0.92890241     -3.81680264
    H      3.25939992      1.47886230     -4.25880697
    H      3.86403195     -0.11942956     -3.89418280
    H      4.97538497      1.15699851     -4.32856756
    C      4.19710689      1.31789845     -2.33271566
    N      4.29635208      1.60752369     -1.22774545
    C     -0.75304707      4.31270803      2.45824080
    H     -0.44701724      5.07758041      3.14104104
    H     -1.18950605      4.76254245      1.59103169
    H      0.09762073      3.73175683      2.16882918
    C     -1.78965415      3.40057210      3.14018933
    N     -2.56145525      2.72144544      3.64793101
    C     -0.05584525     -1.31849071      0.48176519
    H     -0.57876185     -1.17303740     -0.44035288
    H     -0.56211190     -2.05823002      1.06604161
    H      0.94205576     -1.64647587      0.27800452
    C     -0.01082211      0.00889267      1.26126906
    N      0.02269966      0.99718993      1.84164513
    C      1.78184489     -4.20926003     -2.89258596
    H      2.39325579     -5.02315850     -3.22220116
    H      2.22689840     -3.28402383     -3.19385731
    H      0.80831593     -4.29528344     -3.32817801
    C      1.66247962     -4.24569382     -1.35765127
    N      1.57360674     -4.27282042     -0.21482262
    C      3.44272924      2.02326821      2.23201098
    H      4.15771214      2.05954666      1.43678554
    H      3.81146313      2.57890360      3.06879275
    H      2.51867541      2.44887226      1.90052222
    C      3.21293353      0.55880049      2.64929771
    N      3.04184018     -0.53156230      2.95998665
    C     -3.79929337      2.22665550      0.38528526
    H     -3.81298774      1.74322774      1.33975383
    H     -4.74346284      2.08756269     -0.09854971
    H     -3.61712295      3.27266647      0.51785255
    C     -2.68287270      1.61714482     -0.48287464
    N     -1.85164676      1.16333641     -1.12925914
    C      1.13986302      2.80605048     -0.85890964
    H      1.49640432      1.85145585     -0.53252403
    H      0.19261529      3.00759918     -0.40393827
    H      1.83997870      3.56409816     -0.57588872
    C      0.98239520      2.79885169     -2.39082088
    N      0.86515326      2.79349186     -3.53139844
    C      4.04954680     -1.61242298     -0.10230696
    H      4.86852809     -1.11819283      0.37717859
    H      3.75022625     -2.45656662      0.48312265
    H      3.22793943     -0.93324884     -0.19495087
    C      4.48412502     -2.08631305     -1.50165322
    N      4.80768826     -2.43914575     -2.54353012
    C      0.23305495      0.61750673      5.22718415
    H     -0.82608613      0.75977586      5.28084826
    H      0.58620217      0.21469608      6.15342911
    H      0.46190176     -0.06157139      4.43258920
    C      0.91979126      1.96985903      4.96046988
    N      1.43109765      2.97674679      4.76188898
    C      2.01119004     -3.67569007      3.20493482
    H      2.66528205     -3.37447469      3.99634693
    H      2.36764176     -3.27922842      2.27721751
    H      1.98604056     -4.74398770      3.15010070
    C      0.59295639     -3.14227251      3.48003308
    N     -0.46298302     -2.74511890      3.68485623
    C     -0.68509929     -0.35720483     -3.96514244
    H     -0.37496025     -0.32705920     -4.98876600
    H     -1.15317191      0.56966376     -3.70683695
    H     -1.38033542     -1.15866688     -3.82656250
    C      0.54282950     -0.58108408     -3.06310643
    N      1.45707831     -0.74777236     -2.39149962
    C     -2.37709998      3.92477291     -3.54094681
    H     -2.16216565      2.87682378     -3.56344216
    H     -1.76648674      4.42961944     -4.26009947
    H     -3.40903548      4.08233790     -3.77585423
    C     -2.08005513      4.47965986     -2.13543451
    N     -1.85889174      4.89279841     -1.08896671
    C     -3.05012542     -0.60987506      3.42430278
    H     -3.83751378      0.03474181      3.75504263
    H     -2.12505602     -0.07215251      3.42469499
    H     -2.97522716     -1.44892840      4.08405944
    C     -3.35608126     -1.10395127      1.99816123
    N     -3.58387928     -1.47181347      0.93633402
    C     -4.21550204     -1.18275505     -2.43299772
    H     -5.03645240     -1.43381354     -1.79431915
    H     -3.30724750     -1.19387507     -1.86744566
    H     -4.14998256     -1.89694847     -3.22705946
    C     -4.43545424      0.22249315     -3.02333535
    N     -4.59921865      1.26876431     -3.46286855
