90
Energy:   -416.68430852
    C     -2.77420148     -3.16536084      0.69141589
    H     -3.19214205     -3.88715025      1.36167399
    H     -3.34513687     -2.26167417      0.73918893
    H     -1.76161625     -2.96274498      0.97162481
    C     -2.80832519     -3.71877332     -0.74530614
    N     -2.83373184     -4.13081407     -1.81501100
    C      5.05567778      1.24105579     -3.18486398
    H      4.28687787      1.97740253     -3.07697359
    H      4.64865892      0.36533716     -3.64568024
    H      5.84175358      1.63302336     -3.79588392
    C      5.61661734      0.87750617     -1.79750011
    N      6.03426233      0.60682695     -0.76454465
    C     -2.36371604      3.32254517      2.26526916
    H     -1.36417825      3.64766894      2.06497207
    H     -3.03954115      4.14020246      2.12528322
    H     -2.62129032      2.52834468      1.59609043
    C     -2.45890606      2.82084882      3.71814205
    N     -2.52977936      2.44731308      4.79987195
    C     -0.40247038      0.13718764      1.01914534
    H     -0.12587997      1.17068859      1.00260132
    H      0.47274444     -0.46420395      1.15039420
    H     -1.08010891     -0.03776664      1.82852542
    C     -1.08491719     -0.23292412     -0.31084851
    N     -1.59302985     -0.50848914     -1.30108939
    C      0.32054344     -3.25041552     -2.89952252
    H     -0.17804442     -4.16441601     -3.14632900
    H      1.25240063     -3.19985881     -3.42295856
    H     -0.29340948     -2.42131885     -3.18335280
    C      0.58059320     -3.20098127     -1.38244297
    N      0.77421206     -3.16417522     -0.25290828
    C      4.18131625      1.61484411      1.83861189
    H      5.24318506      1.52335148      1.93328980
    H      3.84739861      2.47356843      2.38266212
    H      3.92343074      1.72439601      0.80594905
    C      3.50477190      0.35292893      2.40558438
    N      3.00105387     -0.58662428      2.82772118
    C     -4.57571835      1.02245586     -0.67465490
    H     -3.77451947      1.55501824     -0.20629834
    H     -4.44571448     -0.02792636     -0.51750760
    H     -5.50722937      1.33398969     -0.25023413
    C     -4.57527464      1.31935406     -2.18576418
    N     -4.57494428      1.54040826     -3.31085373
    C      1.67157660      3.89934226      0.04347623
    H      2.49543879      4.41796232      0.48753085
    H      1.58592931      2.92605135      0.47967394
    H      0.76956733      4.44832024      0.21639687
    C      1.90731845      3.76361026     -1.47230826
    N      2.08283897      3.66255161     -2.60087870
    C      4.16854219     -2.35648619     -0.08765586
    H      4.26282075     -3.37815976      0.21598020
    H      3.31516067     -1.92029453      0.38813391
    H      5.04872576     -1.81771707      0.19501678
    C      3.99427634     -2.28925457     -1.61628639
    N      3.86452749     -2.23919758     -2.75442131
    C      0.42913120      0.68490921      4.94103819
    H     -0.52343250      0.27266353      4.68108421
    H      0.38543463      1.08694821      5.93167149
    H      1.17320771     -0.08293500      4.90023991
    C      0.79208796      1.80472288      3.94812341
    N      1.06232576      2.63847506      3.20885323
    C      1.53580912     -3.58912130      2.96519220
    H      2.05678185     -3.08380435      2.17897189
    H      1.30683412     -4.58785415      2.65696787
    H      2.15140579     -3.61808517      3.83989268
    C      0.22954931     -2.83728360      3.28146010
    N     -0.74302049     -2.27750625      3.51693592
    C      1.35031787      0.22723352     -3.39669917
    H      1.87123692     -0.57201215     -3.88120912
    H      1.51616254      1.13804278     -3.93318881
    H      0.30271687      0.01029499     -3.37749213
    C      1.86965473      0.37889494     -1.95486422
    N      2.25632463      0.49181376     -0.88135255
    C     -1.37844962      2.65759055     -3.61378177
    H     -1.53242376      1.62072038     -3.82847319
    H     -0.42167832      2.96043040     -3.98496342
    H     -2.14397126      3.23711707     -4.08603670
    C     -1.43209857      2.87996091     -2.09086575
    N     -1.47204265      3.04552575     -0.95698555
    C     -3.58347885     -0.91583110      4.88118283
    H     -4.56937965     -1.00867791      5.28649663
    H     -3.02895733     -0.20078287      5.45224413
    H     -3.09030429     -1.86452490      4.92190153
    C     -3.67241802     -0.44592528      3.41732548
    N     -3.73863727     -0.09605904      2.32741714
    C     -3.67378068     -1.68580550     -4.02020355
    H     -4.51643613     -1.14988079     -4.40441272
    H     -3.60689324     -1.53483670     -2.96302164
    H     -3.79140608     -2.72947163     -4.22471363
    C     -2.38795974     -1.17231872     -4.69444077
    N     -1.43060760     -0.79000447     -5.19644103
