90
Energy:   -416.44438251
    C     -1.47252308      3.62794057      2.06605472
    H     -2.48777558      3.62408497      2.40391220
    H     -0.98260743      4.51139341      2.41874838
    H     -0.96717181      2.76435975      2.44519501
    C     -1.44375874      3.60488883      0.52649594
    N     -1.42234238      3.58772576     -0.61977555
    C     -3.35646270      1.09998913     -2.00042820
    H     -3.71189977      1.35303766     -1.02342712
    H     -3.94140315      1.61117455     -2.73624967
    H     -2.33134753      1.39209651     -2.09376233
    C     -3.47842179     -0.42035541     -2.21321555
    N     -3.56922588     -1.55232102     -2.37164541
    C      2.02480930      2.62749937      4.48460243
    H      2.68410813      2.44846223      5.30811377
    H      2.22752991      3.59226326      4.06862876
    H      2.17655979      1.87754687      3.73664380
    C      0.56573581      2.57601113      4.97455500
    N     -0.52061072      2.53767579      5.33934697
    C     -1.61448386     -0.68814141     -5.96625309
    H     -1.75602113     -1.42452895     -5.20297020
    H     -0.58242368     -0.40840885     -6.00499047
    H     -1.91002144     -1.09295917     -6.91159916
    C     -2.47081946      0.55173758     -5.64846476
    N     -3.10840024      1.47488385     -5.41185691
    C      2.45078118     -0.01774852     -4.05370960
    H      3.12271885     -0.19053138     -3.23912625
    H      2.70385373      0.90348468     -4.53556306
    H      2.52825780     -0.82087851     -4.75647463
    C      1.00794696      0.06094942     -3.52113467
    N     -0.06630869      0.11954362     -3.12460843
    C     -1.38596313      3.96935360     -4.09568786
    H     -2.02814890      4.16289374     -4.92937835
    H     -1.23029930      4.87502708     -3.54757892
    H     -1.83967538      3.23989396     -3.45777491
    C     -0.03272637      3.43718332     -4.60278259
    N      0.97481991      3.04095836     -4.98033766
    C     -3.10516309     -2.83599127      0.79773800
    H     -2.34129656     -3.03933291      0.07658594
    H     -3.59322403     -1.91639644      0.55067332
    H     -3.82047528     -3.63173664      0.79363244
    C     -2.47260098     -2.72158175      2.19715775
    N     -2.00162975     -2.63639867      3.23908937
    C      3.88083464     -0.18347695      2.01186839
    H      3.06056948     -0.01994371      2.67919300
    H      4.62014376      0.57516348      2.16281809
    H      4.31108418     -1.14408938      2.20424349
    C      3.37811220     -0.12815377      0.55728615
    N      3.00381249     -0.08696315     -0.52571644
    C      1.55194410     -3.26687136      2.85612893
    H      2.37065159     -3.95451588      2.89811994
    H      0.81922337     -3.53965177      3.58661525
    H      1.90623768     -2.27770850      3.05844546
    C      0.91826841     -3.30823258      1.45315196
    N      0.44646805     -3.33902788      0.40857184
    C      1.90756859      3.04141217     -1.51943111
    H      2.72760023      2.45067287     -1.87082172
    H      2.00655244      4.04220079     -1.88483970
    H      0.98871938      2.62201415     -1.87258906
    C      1.90732925      3.05486736      0.02051009
    N      1.90715106      3.06488536      1.16706631
    C     -3.01038517      0.51425498      4.25287007
    H     -1.98610368      0.25653662      4.42412678
    H     -3.64265592     -0.24530317      4.66299713
    H     -3.22612542      1.45053745      4.72375262
    C     -3.26408334      0.63082607      2.73839049
    N     -3.45297316      0.71761854      1.61079159
    C      3.19775115     -3.21554017     -1.88560618
    H      2.92254164     -4.16957932     -2.28431561
    H      3.93231641     -2.76294859     -2.51843620
    H      2.33336811     -2.58680876     -1.83623141
    C      3.78068871     -3.39873408     -0.47202075
    N      4.21471222     -3.53513027      0.58045787
    C     -0.42885618     -0.02243001      0.09885502
    H     -1.43054953     -0.39114313      0.02428124
    H      0.23341185     -0.68098973     -0.42325534
    H     -0.37520446      0.95447597     -0.33436003
    C     -0.01755510      0.05006073      1.58114262
    N      0.28867726      0.10403339      2.68477311
    C      0.16190549     -1.10410718      5.93386249
    H     -0.29560283     -0.20232321      6.28367957
    H      0.09378989     -1.85599631      6.69209866
    H     -0.34158344     -1.44053899      5.05169945
    C      1.64306135     -0.83563290      5.60874885
    N      2.74584922     -0.63574160      5.36668697
    C     -0.88746386     -3.47861199     -2.67070371
    H     -1.85029448     -3.66800385     -3.09730434
    H     -0.93108858     -2.59394542     -2.07040291
    H     -0.59767137     -4.30911808     -2.06145907
    C      0.14399674     -3.28397952     -3.79756094
    N      0.91196605     -3.13906681     -4.63655738
