90
Energy:   -416.38614711
    C     -1.32271542     -4.66699536      0.78414906
    H     -2.16859873     -4.20371708      0.32073255
    H     -1.25732469     -4.35091116      1.80430293
    H     -1.43354340     -5.73058073      0.74670040
    C     -0.03987786     -4.25792612      0.03676019
    N      0.91525302     -3.95335547     -0.51970480
    C      4.30445012      2.02556219     -3.10634943
    H      3.35243709      2.44669507     -3.35377312
    H      4.55890159      1.27326749     -3.82343118
    H      5.04830287      2.79463182     -3.11703096
    C      4.23782528      1.39530119     -1.70280670
    N      4.18822006      0.92604322     -0.65780534
    C     -1.58445419      3.57088184      3.39271212
    H     -0.97839870      4.21475075      3.99523163
    H     -2.41328618      4.12363375      3.00232520
    H     -1.00006925      3.18526522      2.58358101
    C     -2.10490094      2.40363997      4.25194527
    N     -2.49239720      1.53457533      4.89168340
    C     -1.63794979     -0.94791938     -0.49045150
    H     -2.50161401     -1.53732012     -0.26331484
    H     -0.83008692     -1.59169918     -0.76938562
    H     -1.86146301     -0.28486177     -1.29995477
    C     -1.23594488     -0.12736710      0.74917990
    N     -0.93663396      0.48357138      1.67214182
    C      0.10143982     -3.03838358     -3.83867679
    H      0.81083366     -2.70981777     -3.10812558
    H     -0.12335092     -2.23221954     -4.50536094
    H      0.51310263     -3.85561845     -4.39325770
    C     -1.18851539     -3.49533982     -3.13241441
    N     -2.14894568     -3.83556452     -2.60656996
    C      5.09474454      2.20220997      2.35479496
    H      5.72614024      1.96161491      1.52512415
    H      5.62512376      2.83571632      3.03469691
    H      4.22084746      2.70936061      2.00265691
    C      4.68041488      0.90679129      3.07716702
    N      4.37192763     -0.05770680      3.61500585
    C     -4.58813467      1.15748981      1.88188796
    H     -5.45003392      0.72638335      2.34683644
    H     -4.58527384      2.21472227      2.04666183
    H     -3.70326847      0.72840446      2.30354738
    C     -4.62530745      0.87389805      0.36868146
    N     -4.65298427      0.66275110     -0.75796956
    C      1.27896993      2.70997176      0.26387770
    H      1.48467279      1.66008558      0.24583532
    H      0.34384476      2.88181951      0.75470186
    H      2.05824772      3.21705366      0.79349375
    C      1.20721517      3.24387281     -1.17882841
    N      1.15379049      3.64138641     -2.25298869
    C      3.76974642     -2.41185373     -1.87319550
    H      4.54724103     -1.94037917     -1.30917950
    H      3.98648357     -3.45451623     -1.97701748
    H      2.83627513     -2.29053236     -1.36446024
    C      3.68229661     -1.76438100     -3.26773184
    N      3.61718625     -1.28230813     -4.30602753
    C      1.01918183      0.53914253      4.78803765
    H      0.29734928      0.04481547      4.17200298
    H      0.57742179      0.77915989      5.73256865
    H      1.85920719     -0.10578577      4.94075956
    C      1.48487761      1.83337532      4.09544186
    N      1.83160928      2.79699046      3.57977281
    C      2.15573081     -1.14999193      1.33523815
    H      2.18936634     -0.13805420      1.68128854
    H      1.74318610     -1.17591239      0.34830650
    H      3.14625349     -1.55432308      1.31849799
    C      1.27546302     -1.98718658      2.28172308
    N      0.62006363     -2.61051605      2.98642414
    C      0.83164653      0.96596474     -4.62390164
    H     -0.07084657      0.61582796     -5.07976414
    H      1.67258378      0.63181835     -5.19492687
    H      0.82388905      2.03548543     -4.59284693
    C      0.93140608      0.41150968     -3.19064394
    N      1.00568160     -0.00130731     -2.12351844
    C     -2.21954558      2.63434356     -2.40442307
    H     -1.50918879      1.83714655     -2.47349076
    H     -1.90804200      3.44480988     -3.02973016
    H     -3.17924775      2.28560809     -2.72419549
    C     -2.30900706      3.11716491     -0.94480662
    N     -2.37561520      3.47664736      0.14194417
    C     -2.34855374     -1.82930192      4.36237476
    H     -3.05888228     -1.57667699      5.12166008
    H     -1.66199428     -1.01896237      4.23243240
    H     -1.81211236     -2.70799865      4.65395972
    C     -3.08641993     -2.09451019      3.03692463
    N     -3.63579485     -2.29196980      2.05006676
    C     -4.62757373     -1.55125701     -3.21765660
    H     -4.92082511     -2.31405969     -3.90833443
    H     -5.41107687     -0.82764095     -3.13162337
    H     -4.44059034     -1.99007186     -2.25985817
    C     -3.34696614     -0.86329098     -3.72593502
    N     -2.39349559     -0.35106900     -4.10437141
