90
Energy:   -416.22619374
    C     -2.27723827     -4.53012729      1.79886970
    H     -2.73204266     -5.45693661      2.08007715
    H     -2.76257094     -3.72509988      2.31002737
    H     -1.24050893     -4.54693336      2.06308351
    C     -2.41625919     -4.33066383      0.27818318
    N     -2.51976658     -4.18215422     -0.85403707
    C      4.78210878      1.16575333     -3.63281406
    H      4.00112715      1.79569261     -4.00449183
    H      4.55779719      0.14540181     -3.86404158
    H      5.70959542      1.43964062     -4.09069327
    C      4.89409231      1.33346245     -2.10607461
    N      4.97746914      1.45832950     -0.96934769
    C     -1.61617143      4.30370831      0.71122802
    H     -2.23360184      5.14313428      0.95421754
    H     -1.70015728      4.08980264     -0.33380300
    H     -0.59753121      4.52969694      0.94829413
    C     -2.07273760      3.07816978      1.52437171
    N     -2.41267186      2.16570064      2.12979414
    C     -1.04613210     -0.84167507      0.47539504
    H     -1.81648615     -0.10604322      0.57688703
    H     -1.34130712     -1.73892327      0.97810416
    H     -0.88638208     -1.05005946     -0.56188745
    C      0.25751493     -0.30914960      1.09870961
    N      1.22813940      0.08733981      1.56279564
    C      0.59136622     -3.65742022     -2.16929011
    H      0.17259232     -4.59257546     -2.47753233
    H      1.50998078     -3.48860966     -2.69135274
    H     -0.09581127     -2.86812005     -2.39220589
    C      0.86099170     -3.69045900     -0.65343704
    N      1.06174013     -3.71505787      0.47518448
    C      4.16553501      1.64290462      2.39375622
    H      3.73714589      2.61664269      2.50872192
    H      3.78253201      1.18747023      1.50449399
    H      5.22969342      1.72771957      2.32114495
    C      3.80173985      0.77486308      3.61267253
    N      3.53087783      0.12856670      4.52021114
    C     -4.92754199      1.57740196     -0.10683449
    H     -4.04468420      0.97758756     -0.03143555
    H     -5.72092196      0.99339817     -0.52443103
    H     -5.21065153      1.91933201      0.86673211
    C     -4.64885654      2.78909372     -1.01553549
    N     -4.44136256      3.69125331     -1.69210468
    C      1.66359623      2.74879914     -0.44800358
    H      1.93358453      3.65450448      0.05369786
    H      2.34789376      1.97260199     -0.17569134
    H      0.67165006      2.46568338     -0.16377242
    C      1.71779905      2.96987962     -1.97108778
    N      1.75815552      3.13448408     -3.10509319
    C      3.92361085     -1.65386710     -0.02597624
    H      4.88225976     -1.34356774      0.33403314
    H      3.59121651     -2.50420778      0.53199672
    H      3.22257696     -0.85406124      0.09133180
    C      4.03123735     -2.02773450     -1.51602312
    N      4.11137017     -2.30609578     -2.62543075
    C      0.16579722      1.50775046      4.46562342
    H     -0.28431988      0.76262770      3.84346039
    H     -0.56366175      1.89033180      5.14857308
    H      0.97480682      1.07288987      5.01453036
    C      0.69913687      2.65541533      3.58811890
    N      1.09623248      3.50990399      2.93477691
    C      1.88328986     -2.70705097      3.62387751
    H      2.30443987     -2.05218925      2.88992318
    H      2.02999427     -3.72293328      3.32161928
    H      2.36304091     -2.54242179      4.56602148
    C      0.37551841     -2.42439366      3.75926623
    N     -0.74708597     -2.21394244      3.86006928
    C      1.40360459     -0.16196929     -4.71014608
    H      1.50955879      0.86334859     -4.99719509
    H      0.50211370     -0.55820750     -5.12872527
    H      2.24079341     -0.72184785     -5.07146306
    C      1.34365654     -0.26156732     -3.17453986
    N      1.29902249     -0.33572258     -2.03121123
    C     -1.59037293      2.38740015     -4.14376908
    H     -2.43969938      3.00577633     -4.34663767
    H     -1.62561472      1.51768593     -4.76606667
    H     -0.69382797      2.93506149     -4.34668108
    C     -1.60761051      1.96091532     -2.66410237
    N     -1.62044466      1.64337798     -1.56242325
    C     -3.58045160     -0.44940559      3.87296234
    H     -4.25467873      0.33267159      4.15344984
    H     -2.58652590     -0.05811498      3.81049281
    H     -3.61192845     -1.22764023      4.60662381
    C     -3.99527616     -1.01810298      2.50325293
    N     -4.30413190     -1.44152403      1.48344201
    C     -3.83142407     -1.42550806     -2.15280935
    H     -4.24947218     -2.40984573     -2.18767066
    H     -4.58788367     -0.70801351     -2.39337026
    H     -3.45606660     -1.23203488     -1.16966440
    C     -2.68124308     -1.31991000     -3.17140286
    N     -1.82488104     -1.24128744     -3.92979202
