90
Energy:   -421.03843236
    C     -0.40028394     -3.91891178     -4.13701245
    H     -0.93480656     -3.14096715     -4.64098458
    H     -0.02382154     -4.61644624     -4.85577586
    H      0.41583563     -3.49460267     -3.59037755
    C     -1.34739919     -4.64533153     -3.16393123
    N     -2.05256953     -5.18618405     -2.43942803
    C      3.84030651      3.00696625      0.54070904
    H      4.72097069      2.41853792      0.69263957
    H      2.98019663      2.44580885      0.84106290
    H      3.90406993      3.90161316      1.12418160
    C      3.71895183      3.37388824     -0.95000934
    N      3.62859775      3.64707834     -2.05991694
    C      0.01206498      0.14801592      1.40448826
    H      0.60968877     -0.64861238      1.01317083
    H     -0.46647090     -0.17452181      2.30552761
    H      0.63563467      0.99186936      1.61418164
    C     -1.05680869      0.54426097      0.36906615
    N     -1.85263373      0.83928342     -0.40185267
    C      0.38977815     -0.06564507     -3.13841916
    H     -0.53267842      0.46304994     -3.01818751
    H      0.20114338     -1.11884025     -3.12862536
    H      0.83864602      0.20764957     -4.07047429
    C      1.34288658      0.29590376     -1.98409393
    N      2.05251913      0.56509330     -1.12464632
    C      3.28080907     -2.80179071     -0.50258823
    H      4.27602457     -2.51295538     -0.23609164
    H      3.11878526     -3.82204412     -0.22378655
    H      2.57897280     -2.17655974      0.00869561
    C      3.09175511     -2.64896041     -2.02327936
    N      2.95099584     -2.53517130     -3.15550302
    C      0.25204211      3.34492059      4.17378929
    H      0.70351034      3.21681827      5.13538506
    H     -0.11076657      4.34722680      4.08077744
    H      0.97814911      3.15619978      3.41086585
    C     -0.92061473      2.35833561      4.02171691
    N     -1.79371105      1.62377825      3.90849212
    C     -4.16345118      1.77801946     -2.90093274
    H     -4.41205871      2.79595359     -3.11750743
    H     -4.46307319      1.15601214     -3.71838772
    H     -3.10681657      1.69201932     -2.75592808
    C     -4.89517576      1.33195596     -1.62139904
    N     -5.43997797      0.99984141     -0.66872804
    C     -0.00130232      3.65292924     -1.88456434
    H      0.91081405      3.37849996     -2.37203997
    H     -0.29936088      4.62821004     -2.20842783
    H     -0.76506165      2.94581608     -2.13268074
    C      0.21415634      3.66194136     -0.35973768
    N      0.37457511      3.66865129      0.77556508
    C      3.98025566     -0.36481510      2.13439246
    H      3.57598601     -0.18737089      1.15972340
    H      4.03037964     -1.41855772      2.31331473
    H      4.96289521      0.05433203      2.19467756
    C      3.07569271      0.29314215      3.19290940
    N      2.40220447      0.78302123      3.98102338
    C     -3.41069775      3.50404748      1.27871141
    H     -4.30082195      2.91211637      1.32557976
    H     -3.47059328      4.29564731      1.99612435
    H     -2.56195245      2.88963301      1.49556476
    C     -3.26493799      4.10097238     -0.13339155
    N     -3.15641323      4.54541010     -1.18476638
    C     -4.25128424     -0.15260474      2.34109032
    H     -4.30541761      0.37972637      3.26769344
    H     -5.21466530     -0.55257981      2.10272933
    H     -3.93979452      0.51416139      1.56436889
    C     -3.23513462     -1.30274534      2.46843457
    N     -2.47856504     -2.15907729      2.56324815
    C      4.85487320      0.54425221     -3.29508421
    H      5.64583667      1.05031942     -3.80808805
    H      3.98077425      1.16136269     -3.29010729
    H      4.63817214     -0.37708582     -3.79415933
    C      5.28641443      0.25375346     -1.84560754
    N      5.60771650      0.03746393     -0.76640626
    C     -3.56856589     -2.15821529     -1.11436325
    H     -3.63979985     -3.22583224     -1.11883049
    H     -4.52775420     -1.73766912     -0.89527924
    H     -2.86556471     -1.85077820     -0.36859461
    C     -3.09732345     -1.66939580     -2.49660276
    N     -2.74646204     -1.30544747     -3.52574290
    C      0.14721075     -1.86989279      4.78350649
    H     -0.32541647     -2.67582986      5.30503227
    H     -0.59904337     -1.19873737      4.41262337
    H      0.79802474     -1.34562879      5.45170369
    C      0.96480452     -2.43045724      3.60498712
    N      1.57354025     -2.84782295      2.72752588
    C     -0.70889302     -4.67145769      0.83052025
    H      0.14158357     -4.92413135      1.42863878
    H     -0.97782450     -5.50883398      0.22111407
    H     -1.52966644     -4.41572663      1.46756947
    C     -0.36458247     -3.47066004     -0.07011022
    N     -0.10822761     -2.57661161     -0.74067055
