90
Energy:   -416.19730331
    C     -2.31261141     -4.23493966      0.36904394
    H     -3.01815208     -3.43210394      0.41971294
    H     -2.20945785     -4.68069025      1.33628995
    H     -2.65820434     -4.97005197     -0.32742898
    C     -0.94822637     -3.69086217     -0.09359322
    N      0.06762031     -3.28577174     -0.43804762
    C      4.27286657      1.58454613     -4.23948764
    H      3.48375741      2.27484876     -4.45323796
    H      4.01697825      0.61978966     -4.62505891
    H      5.17769454      1.92376049     -4.69896457
    C      4.47460622      1.49133925     -2.71560654
    N      4.62481056      1.42194249     -1.58100780
    C     -0.05288443      3.57695866      2.95261999
    H      0.34479707      4.02993184      3.83668159
    H     -0.54152377      4.32136189      2.35932874
    H      0.74275268      3.13694300      2.38848623
    C     -1.06709759      2.48692339      3.34605967
    N     -1.82222539      1.67534259      3.63899339
    C     -1.31164217     -0.17075688      0.53219064
    H     -1.97353648      0.63137927      0.78393196
    H     -1.69181272     -1.08648004      0.93445989
    H     -1.23835151     -0.25200556     -0.53219943
    C      0.08267096      0.10966135      1.12283140
    N      1.12080046      0.31844548      1.56259029
    C     -0.06479329     -3.11240108     -3.93976017
    H      0.74307546     -3.79445400     -4.10423535
    H      0.21180825     -2.40755268     -3.18373145
    H     -0.28350752     -2.59263721     -4.84910537
    C     -1.31083703     -3.89328234     -3.48237691
    N     -2.23857323     -4.47468394     -3.14183429
    C      4.41173762      1.26552135      1.81020647
    H      5.37000174      1.37819532      1.34767578
    H      4.24073449      2.08225572      2.47998404
    H      3.65127477      1.25627217      1.05753801
    C      4.37316824     -0.05882235      2.59520721
    N      4.34445159     -1.04485643      3.17967595
    C     -4.51760303      2.26587740      1.58881362
    H     -5.45259783      2.70469498      1.86832038
    H     -3.73474082      2.98443567      1.71411275
    H     -4.32348297      1.41526510      2.20822884
    C     -4.57803370      1.82436641      0.11469823
    N     -4.62302708      1.49564142     -0.98284769
    C      1.99609677      3.36638651     -0.48185054
    H      1.40580481      4.05563476      0.08506430
    H      3.02973629      3.49774791     -0.23847298
    H      1.69892743      2.36552510     -0.24761578
    C      1.78570907      3.62581476     -1.98519148
    N      1.62906585      3.81897088     -3.10449715
    C      3.06907411     -1.68204250     -0.88432407
    H      3.09106686     -2.68113649     -0.50192678
    H      2.17508416     -1.19416118     -0.55621909
    H      3.92139042     -1.14390464     -0.52534824
    C      3.09739993     -1.72079470     -2.42357581
    N      3.11848979     -1.74964748     -3.56961870
    C      1.26333553     -0.15793141      4.97530870
    H      1.95316648     -0.94187659      4.74193478
    H      0.41975636     -0.21829967      4.31984783
    H      0.93572172     -0.26107559      5.98868403
    C      1.95613826      1.20570175      4.79606310
    N      2.47196138      2.22098862      4.66260660
    C      1.89769271     -3.16851541      2.44267670
    H      2.21982335     -2.28589497      1.93070680
    H      1.95289361     -4.00601266      1.77901239
    H      2.53016130     -3.34123588      3.28828312
    C      0.44433279     -2.98487041      2.91767086
    N     -0.63775974     -2.84813835      3.27132561
    C      0.63772688      0.62600824     -4.84934004
    H      0.89052532      1.61215594     -5.17874230
    H     -0.33918520      0.37108472     -5.20367868
    H      1.35056692     -0.07255767     -5.23503920
    C      0.65395249      0.57900466     -3.31014304
    N      0.66603319      0.54400836     -2.16414091
    C     -1.96395463      2.92514541     -2.67079827
    H     -2.03591458      1.87497071     -2.86277500
    H     -1.17991467      3.34373489     -3.26658622
    H     -2.89144284      3.39746307     -2.91895295
    C     -1.65392731      3.15437202     -1.17984615
    N     -1.42309788      3.32504165     -0.06976453
    C     -3.33128924     -1.27927638      4.40978234
    H     -3.95034121     -0.60447065      4.96323701
    H     -2.32164488     -0.92508028      4.41768657
    H     -3.37224080     -2.25000805      4.85800336
    C     -3.83451156     -1.36314200      2.95673938
    N     -4.20918345     -1.42558377      1.87488285
    C     -4.15568138     -1.64998623     -1.88621708
    H     -4.18265343     -2.71494811     -1.98636138
    H     -5.13149934     -1.24992992     -2.06686410
    H     -3.84241965     -1.39268250     -0.89598429
    C     -3.16327434     -1.06334321     -2.90728428
    N     -2.42438218     -0.62656082     -3.66751522
