90
Energy:   -416.18290773
    C     -3.35787313     -4.39240930     -0.54197284
    H     -2.91508104     -5.18913049     -1.10239294
    H     -3.38765297     -3.50742833     -1.14265656
    H     -4.35314108     -4.66532106     -0.25937778
    C     -2.51985868     -4.12664800      0.72242532
    N     -1.89591883     -3.92877663      1.66382723
    C      4.35412679      4.07979709      0.34895787
    H      3.47693769      4.48611438      0.80759252
    H      4.07689107      3.52924637     -0.52564682
    H      5.01459662      4.87576774      0.07489691
    C      5.06505397      3.14178100      1.34208845
    N      5.59437158      2.44338538      2.08151931
    C     -1.72921419      3.03629416      3.13319296
    H     -1.92246659      3.01998498      2.08091557
    H     -1.01004611      3.79775628      3.35198922
    H     -2.63780687      3.24199608      3.65954374
    C     -1.17844438      1.66777151      3.57523185
    N     -0.76837123      0.64884419      3.90434989
    C      0.09958592     -1.06426374      0.51208703
    H      0.83664410     -0.77141513      1.23033847
    H      0.55161140     -1.13235205     -0.45535084
    H     -0.30523446     -2.01654737      0.78443869
    C     -1.02916892     -0.01717210      0.47874638
    N     -1.86957822      0.76243522      0.45392275
    C      3.16508527      0.51837799     -3.02603850
    H      3.38165561      0.62977258     -4.06795439
    H      3.65054420     -0.35901240     -2.65265558
    H      3.52030436      1.37620991     -2.49420874
    C      1.64343526      0.38620242     -2.82928774
    N      0.51049766      0.28779171     -2.68279786
    C      2.62398844      1.22833155      3.79018752
    H      2.20903007      0.40840736      3.24206887
    H      2.32026214      1.16301575      4.81409341
    H      3.69179331      1.19232716      3.73191626
    C      2.12151544      2.55423716      3.18927554
    N      1.74740145      3.54143415      2.74186926
    C     -4.75532561      2.22369087     -0.48460849
    H     -3.74796293      2.41871049     -0.78806847
    H     -5.40145698      2.97435624     -0.88947247
    H     -5.05640882      1.26205342     -0.84447151
    C     -4.84189405      2.24665054      1.05278501
    N     -4.90634819      2.26374506      2.19744435
    C      0.26752524      3.27186111     -0.32625036
    H      0.64074731      2.45225915      0.25155417
    H     -0.70395739      3.02922223     -0.70340678
    H      0.20299353      4.14337425      0.29116327
    C      1.22145236      3.54636693     -1.50364987
    N      1.93169446      3.75074900     -2.38027733
    C      4.77878599     -0.93143839      1.04721913
    H      5.60272184     -0.39700777      1.47197059
    H      5.11403974     -1.48535198      0.19534840
    H      4.37724305     -1.60503625      1.77518086
    C      3.68833921      0.06608171      0.61423010
    N      2.87645202      0.80878076      0.29185009
    C     -0.24379721     -2.61529910      4.30406112
    H     -0.99866682     -2.14765723      3.70708278
    H     -0.19992874     -2.13882440      5.26111206
    H     -0.48075556     -3.65088978      4.43173950
    C      1.12055824     -2.48364452      3.60206306
    N      2.13638289     -2.38562171      3.07939360
    C      1.77180844     -4.43896834      0.27285218
    H      0.74847759     -4.14591915      0.38155514
    H      2.24857867     -4.43168276      1.23073326
    H      1.81853566     -5.42444987     -0.14132386
    C      2.49119616     -3.45286740     -0.66612932
    N      3.02681302     -2.71867043     -1.36524372
    C      0.76302038     -2.76830253     -4.28225600
    H      0.44244119     -1.82012607     -4.66052914
    H      0.59520452     -3.52274354     -5.02222606
    H      1.80607128     -2.72455200     -4.04767169
    C     -0.03527084     -3.11010542     -3.01044551
    N     -0.62963494     -3.36459321     -2.06352480
    C     -0.52837036      2.60204490     -4.91516284
    H      0.44033552      2.94673004     -4.61901890
    H     -0.82649380      3.10340084     -5.81219335
    H     -0.49324139      1.54717234     -5.09097219
    C     -1.54406907      2.90260665     -3.79729936
    N     -2.30030292      3.12638853     -2.96499918
    C     -3.93822179     -0.99453572      2.69712059
    H     -3.28533507     -0.14682190      2.70163642
    H     -3.40617079     -1.85633804      3.04225476
    H     -4.77064298     -0.80705844      3.34274147
    C     -4.44558297     -1.24408641      1.26467195
    N     -4.82333642     -1.42988824      0.19814883
    C     -2.92205709     -0.49086764     -2.54845481
    H     -3.98673006     -0.59336822     -2.51903905
    H     -2.64700719      0.47863069     -2.18884441
    H     -2.47432888     -1.24079676     -1.93035705
    C     -2.42998322     -0.65935922     -3.99796297
    N     -2.06361186     -0.78480886     -5.07718767
