90
Energy:   -416.16125324
    C     -2.27658484     -4.48770887      0.27754675
    H     -2.58978001     -5.19520174     -0.46154919
    H     -3.03876770     -3.74834197      0.40912550
    H     -2.10583998     -4.99293842      1.20517188
    C     -0.97458699     -3.80642957     -0.18317022
    N     -0.00519042     -3.29918616     -0.52619494
    C      4.04296996      2.01626526     -4.31144751
    H      3.20861807      2.66246477     -4.48803540
    H      3.82830430      1.04247906     -4.69946579
    H      4.90959710      2.41140581     -4.79901334
    C      4.30547629      1.91903801     -2.79710366
    N      4.50092418      1.84664790     -1.66960584
    C     -0.06877906      3.40993050      3.11014781
    H     -0.61886435      4.15845950      2.57910102
    H      0.72082165      3.04027290      2.48983895
    H      0.34615231      3.83604980      3.99961585
    C     -1.01069487      2.25134359      3.48707086
    N     -1.71199400      1.38872298      3.76770721
    C     -1.25118006     -0.27836593      0.56343199
    H     -1.93456403      0.49491523      0.84613817
    H     -1.57599783     -1.21017966      0.97709330
    H     -1.21918777     -0.35357715     -0.50344141
    C      0.15383432      0.05805102      1.09668451
    N      1.19993138      0.30852873      1.49371525
    C     -0.03647947     -2.93406483     -4.00295188
    H      0.80962034     -3.55924285     -4.19831755
    H      0.19654888     -2.25661073     -3.20818599
    H     -0.28101457     -2.37909438     -4.88449001
    C     -1.23767172     -3.80804745     -3.59688348
    N     -2.13201395     -4.45876724     -3.29454709
    C      4.47484190      1.45778633      1.71120383
    H      5.36068356      1.61485475      1.13196791
    H      4.43127541      2.18018971      2.49932464
    H      3.61483837      1.56268606      1.08327940
    C      4.50035752      0.04102466      2.31430857
    N      4.51935506     -1.01381880      2.76334746
    C     -4.52916356      1.94824869      1.87128205
    H     -5.47427857      2.31547237      2.21304888
    H     -3.78621960      2.70874760      1.99200806
    H     -4.25359386      1.08652746      2.44259366
    C     -4.63480292      1.56540490      0.38337380
    N     -4.71345623      1.28036030     -0.72444152
    C      1.78542715      3.53655345     -0.41160533
    H      2.81876291      3.70884024     -0.19381036
    H      1.54196422      2.51603092     -0.20146567
    H      1.18129287      4.17933911      0.19399144
    C      1.51810200      3.83224848     -1.89912061
    N      1.31906628      4.05240688     -3.00664336
    C      3.07725426     -1.29734730     -1.00239900
    H      4.01945368     -1.63574802     -0.62471477
    H      2.29604969     -1.92375139     -0.62525656
    H      2.90856939     -0.28853674     -0.68816063
    C      3.08832215     -1.36068278     -2.54105625
    N      3.09656270     -1.40783892     -3.68665651
    C      1.52823209     -0.36918454      4.84556999
    H      0.64254786     -0.42510778      4.24779392
    H      1.28173769     -0.56739447      5.86775022
    H      2.23648744     -1.09412210      4.50243882
    C      2.13836580      1.03994791      4.72859741
    N      2.59263808      2.08911107      4.64150601
    C      2.07761735     -3.23097497      2.18551805
    H      2.34788974     -2.28676234      1.76088230
    H      2.11712600     -3.98667309      1.42904034
    H      2.76056274     -3.47713369      2.97157820
    C      0.64883085     -3.14801026      2.75410048
    N     -0.41496565     -3.08623926      3.17743595
    C      0.43729373      0.87122853     -4.84756176
    H      0.62951210      1.87857245     -5.15286570
    H     -0.53332268      0.57482998     -5.18660568
    H      1.17616142      0.22316512     -5.27063085
    C      0.49418799      0.78072533     -3.31127656
    N      0.53654835      0.71334159     -2.16744240
    C     -2.21569982      2.93805742     -2.44784432
    H     -1.46512541      3.39806026     -3.05606765
    H     -3.16308484      3.39519595     -2.64376542
    H     -2.26938965      1.89408934     -2.67620182
    C     -1.85516581      3.12059337     -0.96181072
    N     -1.58673186      3.25649969      0.14460884
    C     -3.10731647     -1.64538436      4.45967261
    H     -3.73428276     -1.01597283      5.05604043
    H     -2.11183257     -1.25313842      4.45232244
    H     -3.09850112     -2.63298621      4.87133263
    C     -3.65039482     -1.69439909      3.01944226
    N     -4.05474134     -1.73089278      1.94712530
    C     -4.09110858     -1.77923221     -1.81284864
    H     -4.09207700     -2.83544119     -1.98408478
    H     -5.08891528     -1.40284600     -1.90010867
    H     -3.71848003     -1.57754066     -0.83031743
    C     -3.18992400     -1.09107943     -2.85491970
    N     -2.51895111     -0.57871841     -3.63078897
