90
Energy:   -416.12573856
    C     -2.11582336     -4.25005141      2.29338771
    H     -2.66093636     -5.05486732      2.74062741
    H     -2.58540162     -3.32076430      2.54000647
    H     -1.11144571     -4.25111559      2.66233687
    C     -2.10097945     -4.42766560      0.76373649
    N     -2.08992749     -4.55990744     -0.37515838
    C      3.26929063     -0.67242521     -2.38292470
    H      2.40959934     -0.90582879     -1.79017363
    H      3.74390973     -1.57906407     -2.69540156
    H      2.96783360     -0.11267969     -3.24356848
    C      4.25738128      0.16277005     -1.54762490
    N      4.99305968      0.78461088     -0.92570624
    C     -1.43374621      4.53248369      0.22034275
    H     -0.81220811      5.13407793      0.85016411
    H     -2.25862923      5.11708149     -0.12996069
    H     -0.86350360      4.18365555     -0.61514597
    C     -1.96180553      3.32730349      1.02052649
    N     -2.35496970      2.42999204      1.61629966
    C     -0.75046725     -0.78460865      0.35635390
    H     -1.45844960      0.01215434      0.45032152
    H     -0.99154691     -1.55998778      1.05318020
    H     -0.78427220     -1.17626037     -0.63881706
    C      0.66412896     -0.25169877      0.65050459
    N      1.71736014      0.14507685      0.86951315
    C      1.25301408     -4.19837603     -1.48254635
    H      1.57689275     -5.20993310     -1.61198780
    H      1.91949921     -3.54133989     -2.00119861
    H      0.26436369     -4.08724810     -1.87639922
    C      1.25054803     -3.84807145      0.01708047
    N      1.24871195     -3.58725377      1.13362081
    C      4.44445595      2.21217161      2.05487670
    H      5.42932466      1.99872125      1.69519245
    H      4.40300881      3.22332976      2.40235390
    H      3.73840854      2.07823285      1.26212418
    C      4.10281401      1.25683867      3.21341878
    N      3.84844605      0.54554988      4.07600603
    C     -4.74039362      1.35647383     -0.77883573
    H     -5.27430717      0.81365379     -1.53062221
    H     -5.31133040      1.36788026      0.12604005
    H     -3.79735809      0.88375515     -0.59961483
    C     -4.50750086      2.80167625     -1.25711486
    N     -4.33410162      3.87769514     -1.61321542
    C      2.00833068      3.05939084     -1.12327765
    H      1.83040924      4.10712615     -0.99879925
    H      3.00034978      2.82495322     -0.79795288
    H      1.30178497      2.50594789     -0.54070308
    C      1.85353602      2.68539362     -2.60913252
    N      1.73828435      2.40693569     -3.71541901
    C      4.77426649     -1.89966100      1.46992425
    H      5.70514636     -1.37337150      1.43274627
    H      4.74637390     -2.51359135      2.34582985
    H      3.96814242     -1.19675057      1.50122913
    C      4.63485560     -2.78519086      0.21772559
    N      4.53105787     -3.44450809     -0.71459323
    C      0.36148229      1.82093506      3.71950449
    H      1.16075880      1.21783103      4.09676140
    H     -0.30964867      1.20985174      3.15288336
    H     -0.16576595      2.26640058      4.53710393
    C      0.93589285      2.92732181      2.81531377
    N      1.36356763      3.75107704      2.14210268
    C      1.80060157     -2.09601812      3.99572749
    H      2.29039045     -1.64404112      3.15863501
    H      1.93055063     -3.15730231      3.95463966
    H      2.22480020     -1.71960951      4.90307041
    C      0.29811065     -1.76081769      3.95375506
    N     -0.82056214     -1.51124573      3.92250467
    C     -0.23022324     -0.07612336     -5.42003658
    H      0.10665197     -0.64808558     -6.25924722
    H      0.33637041      0.82920737     -5.35486758
    H     -1.26671878      0.15980902     -5.54215125
    C     -0.03876392     -0.89549253     -4.13023912
    N      0.10378625     -1.50555012     -3.16992628
    C     -1.91679198      2.99291603     -4.06389710
    H     -1.03001292      3.23500953     -4.61154097
    H     -2.42871125      3.89399285     -3.79762973
    H     -2.55579442      2.38553204     -4.67024656
    C     -1.53662335      2.22178284     -2.78623305
    N     -1.25357053      1.64763913     -1.83495409
    C     -3.71739484      0.15671006      3.62885062
    H     -3.89165549     -0.47928670      4.47149024
    H     -4.41671705      0.96643947      3.64248255
    H     -2.72134482      0.54486334      3.67489926
    C     -3.89365633     -0.65198708      2.33018176
    N     -4.02489102     -1.25409886      1.36326375
    C     -3.27399091     -2.05850676     -2.18449429
    H     -2.34266467     -2.56087249     -2.34311425
    H     -4.07730869     -2.75948818     -2.27507402
    H     -3.28483179     -1.62824128     -1.20487540
    C     -3.44262493     -0.94584510     -3.23575382
    N     -3.56818062     -0.11741792     -4.01846432
