90
Energy:   -416.04142983
    C     -2.76771474     -3.40767874     -1.07456913
    H     -1.88142437     -3.24209502     -0.49839938
    H     -2.60183516     -3.09104047     -2.08309442
    H     -3.01098098     -4.44959695     -1.06329627
    C     -3.93193351     -2.60213315     -0.46852377
    N     -4.79874729     -2.00236784     -0.01729545
    C      1.93666300      2.94957822      1.32383809
    H      1.63209887      3.97136991      1.23393482
    H      2.33448449      2.61245291      0.38950213
    H      2.68726714      2.86650973      2.08185665
    C      0.72213109      2.08372541      1.70699753
    N     -0.18214312      1.43905863      1.99227714
    C      0.37273274      3.53901748      5.10085988
    H      0.09502048      4.38019232      5.70102734
    H      0.50029913      3.85182506      4.08558783
    H      1.29097269      3.12826306      5.46557248
    C     -0.73275054      2.46932287      5.17338679
    N     -1.55583309      1.67288661      5.22738636
    C      3.52590997      1.27553817     -2.40553919
    H      3.28932366      1.35117040     -1.36476694
    H      3.29964934      2.20185424     -2.89097071
    H      4.56734906      1.05811110     -2.51968463
    C      2.69316830      0.14641204     -3.04053171
    N      2.07315428     -0.69427369     -3.51331250
    C     -0.20708447     -0.60056886     -0.76547418
    H      0.58455373      0.07127567     -1.02399703
    H     -0.30944587     -1.34216902     -1.52996776
    H      0.01915766     -1.07694133      0.16553756
    C     -1.52474972      0.18544878     -0.63305596
    N     -2.50581138      0.77067464     -0.53446457
    C      5.07346405     -0.44145281      2.10828291
    H      5.11123521     -1.35066765      2.67113450
    H      5.10928054      0.39345287      2.77652596
    H      5.90876884     -0.40018548      1.44085351
    C      3.76533605     -0.39389720      1.29702488
    N      2.79137528     -0.35848989      0.69300641
    C     -5.14745675      0.35867052     -2.53857742
    H     -5.16773754      0.44240361     -1.47205145
    H     -4.64038942     -0.54176214     -2.81607127
    H     -6.14930963      0.33386887     -2.91351043
    C     -4.40614491      1.56980538     -3.13457164
    N     -3.85420455      2.47155033     -3.57831642
    C     -3.17409502      3.26098306      2.21463563
    H     -3.03957862      2.44750329      1.53268535
    H     -4.07422678      3.78562044      1.97087852
    H     -3.24135093      2.88203896      3.21302288
    C     -1.97538084      4.22209812      2.11003079
    N     -1.08288365      4.93769196      2.03214773
    C      3.67272569     -3.09214684     -1.45801702
    H      3.89153369     -3.90088064     -0.79245495
    H      3.54760953     -3.47113382     -2.45079792
    H      2.77188621     -2.60670474     -1.14539377
    C      4.83441699     -2.08138869     -1.43701028
    N      5.69934897     -1.32883330     -1.42136980
    C     -1.74613466      4.11180788     -1.47239692
    H     -1.58898629      4.96284979     -0.84316544
    H     -2.45817482      3.45687579     -1.01527346
    H     -2.11710220      4.43452262     -2.42273232
    C     -0.41358696      3.36508706     -1.66816372
    N      0.57855537      2.80911946     -1.81392100
    C      1.08027037     -4.18360189      1.10185875
    H      1.36785624     -4.95611573      0.41964404
    H      0.69818796     -3.34781945      0.55378956
    H      0.32335056     -4.55377817      1.76135933
    C      2.30567561     -3.74188345      1.92336153
    N      3.21804552     -3.41300400      2.53500768
    C     -0.75193915      1.07425264     -4.61388884
    H     -0.40575902      0.94909859     -5.61857584
    H      0.08464951      1.22956207     -3.96512271
    H     -1.40389927      1.92123360     -4.56418640
    C     -1.51590817     -0.18817026     -4.17316245
    N     -2.08471784     -1.12810149     -3.84502161
    C      1.03915011     -0.99108305      4.03879162
    H      1.44928415     -1.87264415      4.48549094
    H      0.87728241     -1.16235322      2.99506538
    H      0.10838754     -0.75260842      4.50965250
    C      2.02143626      0.18098383      4.22037673
    N      2.75279295      1.05364090      4.35557509
    C     -3.14492457     -0.40731530      2.76647090
    H     -3.76035686     -0.69376031      3.59356977
    H     -3.76411588     -0.16667970      1.92766478
    H     -2.56099172      0.44791287      3.03574081
    C     -2.20841465     -1.57227534      2.39577256
    N     -1.51114044     -2.43964105      2.11977080
    C      0.24312651     -3.40387824     -4.82080578
    H      0.72922961     -2.47278429     -5.02493324
    H     -0.78934953     -3.33438656     -5.09295136
    H      0.70992080     -4.18182433     -5.38808177
    C      0.35766049     -3.72431330     -3.31887258
    N      0.44293625     -3.96289176     -2.20061504
