90
Energy:   -415.90055004
    C     -1.46027230     -4.49943389      0.08310164
    H     -1.47569818     -4.78869885      1.11314436
    H     -0.45167362     -4.30802297     -0.21854326
    H     -1.86790501     -5.28759377     -0.51484373
    C     -2.30301381     -3.22423389     -0.10465270
    N     -2.93047317     -2.27478952     -0.24444434
    C      1.55783720     -2.27866580     -1.68623946
    H      1.71173989     -2.34091278     -0.62919667
    H      2.46043553     -1.95272244     -2.15950077
    H      1.28459919     -3.24167240     -2.06420555
    C      0.43052197     -1.27218003     -1.98246028
    N     -0.40881546     -0.52280563     -2.20301015
    C      4.67181152      1.90591135      1.99618871
    H      5.15658653      1.06272024      1.55018184
    H      3.72530625      1.60412364      2.39361927
    H      5.28284504      2.29266536      2.78483214
    C      4.45692603      2.99719025      0.93104336
    N      4.29693401      3.80969699      0.13799424
    C      4.01316964     -2.00968791      1.61943079
    H      5.04488566     -1.83400173      1.39672784
    H      3.40421560     -1.57677284      0.85349435
    H      3.83266772     -3.06333917      1.66566036
    C      3.66449561     -1.36914743      2.97579885
    N      3.40489195     -0.89223592      3.98567652
    C      3.21612084      1.45527435     -2.33369867
    H      3.38839175      1.37587108     -3.38675044
    H      3.38754253      2.46356598     -2.01927590
    H      2.20510658      1.18077350     -2.11598663
    C      4.17656691      0.51344381     -1.58396632
    N      4.89166267     -0.18779183     -1.02575651
    C     -0.91798538      0.25669750      1.18126613
    H     -1.04484372     -0.50799059      1.91886986
    H     -1.39477377     -0.04278666      0.27138638
    H     -1.35808958      1.16684659      1.53174584
    C      0.58423841      0.47837613      0.92478558
    N      1.70271231      0.64342594      0.73382415
    C     -3.63514686      0.96762062     -1.70064493
    H     -3.94456859      1.12244342     -2.71316075
    H     -4.49343366      0.96585403     -1.06170853
    H     -3.12990801      0.02771434     -1.62184780
    C     -2.68168403      2.10009855     -1.27637806
    N     -1.97178761      2.94327984     -0.96049209
    C      1.30081308      1.61985978      4.65071140
    H      1.28329671      2.65632279      4.91592409
    H      1.78800784      1.50177141      3.70540960
    H      1.83362093      1.06949421      5.39778076
    C     -0.14202029      1.09020085      4.55430973
    N     -1.21627532      0.69584570      4.48253431
    C      0.03735267     -1.81574614     -6.10966996
    H      0.09786221     -2.81777857     -5.73930557
    H      0.20912240     -1.81487003     -7.16579187
    H     -0.93505419     -1.41837973     -5.90614126
    C      1.10258502     -0.94673848     -5.41561972
    N      1.89569892     -0.29972278     -4.89886777
    C      0.26634612     -2.62975314      4.53020687
    H     -0.59556144     -2.02138225      4.70881370
    H      1.11613033     -2.19509644      5.01377635
    H      0.09713364     -3.61145059      4.92076587
    C      0.52733461     -2.71802284      3.01505227
    N      0.72165241     -2.78374364      1.88695079
    C     -4.03962114     -1.14434088      2.95666911
    H     -4.02908436     -0.89401971      1.91641507
    H     -3.55312587     -0.37159088      3.51441356
    H     -5.05175424     -1.24151661      3.28989960
    C     -3.29825937     -2.47694056      3.17151979
    N     -2.74628184     -3.46912160      3.33148589
    C     -3.19095415     -2.22910969     -3.72372565
    H     -2.81609914     -1.22699004     -3.71188828
    H     -3.89161971     -2.35727585     -2.92526445
    H     -3.67689619     -2.41712471     -4.65828961
    C     -2.02263515     -3.21635006     -3.54487610
    N     -1.15276856     -3.95139540     -3.41171448
    C      1.01854949      4.22037819     -0.34349219
    H      1.85974531      4.87431911     -0.44173199
    H      0.15703404      4.67912890     -0.78194175
    H      1.22429509      3.29701706     -0.84346426
    C      0.75167424      3.94788333      1.14852797
    N      0.55297349      3.74499851      2.25940479
    C     -2.80836345      3.66029302      2.65070808
    H     -2.28617495      4.15999943      1.86171324
    H     -2.10554064      3.15410078      3.27896646
    H     -3.35171930      4.37787906      3.22926991
    C     -3.78943951      2.63683848      2.04935081
    N     -4.51989524      1.87483006      1.60161298
    C     -0.13955661      2.44689708     -3.91858842
    H      0.00200913      2.12378347     -2.90841174
    H     -0.42595623      3.47782477     -3.92649099
    H      0.77368606      2.32624598     -4.46295064
    C     -1.24549282      1.60181982     -4.57764040
    N     -2.06891260      0.97262138     -5.06833455
