90
Energy:   -415.71589408
    C     -2.55248117     -4.04812477      1.79258986
    H     -3.14164031     -4.85048517      2.18503028
    H     -2.89094224     -3.12139673      2.20673760
    H     -1.52536435     -4.20028849      2.05100102
    C     -2.69568217     -4.00811911      0.25978426
    N     -2.80230183     -3.97833308     -0.88145919
    C      5.02339284      0.35573389     -2.08145538
    H      4.50915210      0.55652475     -2.99804671
    H      4.40792386     -0.25381053     -1.45332113
    H      5.93836536     -0.15791727     -2.29094729
    C      5.33245442      1.68330951     -1.36477979
    N      5.56256482      2.67174991     -0.83118224
    C     -1.10931868      4.67910542      1.63100878
    H     -0.58831313      5.46965191      2.12949612
    H     -1.55243571      5.05494640      0.73251562
    H     -0.42173106      3.89580866      1.38899942
    C     -2.21103410      4.12774021      2.55503235
    N     -3.03131130      3.71722374      3.24300989
    C     -1.57234203     -0.67138845     -0.58986747
    H     -2.60689096     -0.93989862     -0.63997704
    H     -0.98920089     -1.53927995     -0.36268946
    H     -1.26206696     -0.26975931     -1.53184545
    C     -1.36921603      0.38613661      0.51103242
    N     -1.21797949      1.17351209      1.33070243
    C      0.33224166     -4.20784810     -2.26910131
    H      1.26240196     -4.19503834     -2.79781476
    H     -0.26177387     -3.37103078     -2.57205578
    H     -0.19078482     -5.11493320     -2.48941701
    C      0.60121211     -4.12515135     -0.75502861
    N      0.80147284     -4.06357986      0.37226734
    C      4.92489931      2.42111509      2.52357682
    H      5.98312469      2.57199121      2.57148955
    H      4.50856535      2.49975547      3.50611477
    H      4.48702016      3.16404026      1.89015505
    C      4.63127364      1.02152356      1.95215098
    N      4.41265598     -0.02053596      1.52669846
    C     -4.50387482      2.47242675      0.15687974
    H     -3.83035222      2.10093939      0.90069735
    H     -5.50802507      2.40771906      0.52073999
    H     -4.26811445      3.49339676     -0.05976829
    C     -4.36733661      1.63078643     -1.12553941
    N     -4.26567770      1.00414695     -2.08035877
    C      1.86978293      2.36898813     -0.21461145
    H      2.13987210      1.40700502      0.16819468
    H      0.85867428      2.58989536      0.05697349
    H      2.52019310      3.11216926      0.19715003
    C      2.00019286      2.36595813     -1.74907685
    N      2.09728897      2.36370215     -2.89155609
    C      4.07943648     -3.09302137      0.07151182
    H      5.06394472     -2.80906477      0.37975258
    H      3.82411148     -4.03285829      0.51469891
    H      3.37851709     -2.34823713      0.38600750
    C      4.03875761     -3.22097676     -1.46262398
    N      4.00847035     -3.31624537     -2.60485781
    C     -0.39433637      1.76773322      4.69672735
    H     -1.02822607      1.13798836      4.10808022
    H     -0.95836325      2.60072394      5.06128080
    H     -0.00642936      1.21035507      5.52362326
    C      0.77147399      2.27741987      3.82914120
    N      1.63947279      2.65690476      3.18318388
    C      1.33565947     -1.17393352      2.17952578
    H      1.17497557     -1.48133008      1.16730633
    H      2.16067349     -1.71731674      2.59060442
    H      1.55094068     -0.12610440      2.20416752
    C      0.06967445     -1.45753780      3.00925498
    N     -0.87290895     -1.66869408      3.62702607
    C      1.80461512     -0.96346230     -4.18294052
    H      1.91559592      0.03589041     -4.54883339
    H      0.93170439     -1.40655884     -4.61490279
    H      2.66619096     -1.53889785     -4.45026074
    C      1.66119925     -0.93585831     -2.64988151
    N      1.55441962     -0.91530588     -1.50844940
    C     -1.23699455      1.90335136     -3.73454752
    H     -0.53270420      1.11174972     -3.58540955
    H     -0.90343800      2.53163020     -4.53386274
    H     -2.19220066      1.48911611     -3.98130555
    C     -1.35593572      2.73460469     -2.44362889
    N     -1.44449283      3.35351058     -1.48248129
    C     -3.86683057      0.19300474      3.68160345
    H     -4.76917300      0.47034074      4.18535246
    H     -3.28014889      1.06778881      3.49330436
    H     -3.31006670     -0.48473753      4.29444804
    C     -4.21383945     -0.48974587      2.34555089
    N     -4.47220334     -0.99808474      1.35079903
    C     -4.20291250     -2.11329978     -3.26071287
    H     -4.39233799     -3.15261312     -3.43055384
    H     -4.88797543     -1.52708973     -3.83686013
    H     -4.33089834     -1.89258676     -2.22157646
    C     -2.76009640     -1.77883092     -3.68262788
    N     -1.68585423     -1.52980365     -3.99676278
