90
Energy:   -415.68696186
    C     -2.57101660     -4.10538797      0.65820890
    H     -3.19890488     -3.24393629      0.75071559
    H     -1.57351166     -3.85285893      0.95165749
    H     -2.94151951     -4.88619351      1.28905706
    C     -2.56974107     -4.58491202     -0.80523056
    N     -2.56879138     -4.94193947     -1.89482776
    C      4.70207059      1.51689497     -3.67100317
    H      3.86437155      2.07356369     -4.03607909
    H      4.63657573      0.50627969     -4.01635267
    H      5.60788378      1.95866556     -4.03050325
    C      4.69830079      1.53441928     -2.13110749
    N      4.69549399      1.54746692     -0.98458517
    C     -1.96054332      4.70118797      1.84189578
    H     -2.11033427      5.50204149      2.53550697
    H     -2.61107911      4.83021259      1.00222028
    H     -0.94368048      4.70324936      1.50890208
    C     -2.27219401      3.35988933      2.53138240
    N     -2.50423212      2.36123153      3.04473654
    C     -0.18399184      0.07327345      0.96702123
    H     -0.28690128     -0.38695655      1.92748891
    H     -0.47446531      1.10109787      1.03106194
    H      0.83555761      0.00994798      0.64857516
    C     -1.08520517     -0.65249817     -0.04918254
    N     -1.75619946     -1.19286813     -0.80579243
    C      0.42481859     -3.34688022     -2.73779439
    H     -0.09611941     -4.21009632     -3.09609838
    H      1.33164517     -3.22204997     -3.29185401
    H     -0.19142613     -2.48109774     -2.86254307
    C      0.75635982     -3.53023646     -1.24512534
    N      1.00320734     -3.66675352     -0.13376538
    C      4.50992285      2.11633885      2.27671476
    H      5.37240066      1.83542763      1.70915763
    H      4.81496297      2.45690990      3.24411384
    H      3.98966536      2.90193844      1.76969947
    C      3.57835001      0.89979495      2.43096454
    N      2.88475168     -0.00597727      2.54581051
    C     -4.35589942      0.49614433      0.62832748
    H     -4.20712391     -0.52976270      0.89343272
    H     -5.16075572      0.90064868      1.20580620
    H     -3.46156268      1.04907967      0.82662875
    C     -4.69881052      0.59468630     -0.86977180
    N     -4.95412342      0.66805528     -1.98517481
    C      1.68893191      3.16041720     -0.47594944
    H      2.44918969      3.81345457     -0.10118221
    H      1.92525050      2.15035089     -0.21361630
    H      0.74560849      3.42867163     -0.04807144
    C      1.61228732      3.28818633     -2.00872492
    N      1.55522195      3.38331625     -3.14994593
    C      3.79874128     -1.75810969     -0.28042756
    H      4.61449496     -1.18613306      0.10981448
    H      3.79855311     -2.73017383      0.16677526
    H      2.87690309     -1.26274259     -0.05743682
    C      3.95169478     -1.89524132     -1.80666481
    N      4.06557561     -1.99734205     -2.94301781
    C      0.47428472      1.60514725      4.58801247
    H      0.04829493      2.06972979      5.45264878
    H      1.31685714      1.01358637      4.87960554
    H     -0.25763139      0.97845962      4.12275929
    C      0.92812999      2.68986479      3.59352148
    N      1.26603842      3.49748631      2.85307774
    C      0.90764012     -2.93957349      3.09289384
    H      1.75945933     -2.48737430      2.62940695
    H      0.07184910     -2.89217116      2.42648144
    H      1.12574784     -3.96235548      3.31926767
    C      0.57065881     -2.18658335      4.39329742
    N      0.31976090     -1.62594797      5.36150699
    C      1.49421258     -0.04147834     -4.78396749
    H      1.57695688      0.95356889     -5.16859013
    H      0.61810531     -0.50705155     -5.18468776
    H      2.35855268     -0.60578631     -5.06569748
    C      1.39205837      0.00865662     -3.24817747
    N      1.31599991      0.04598438     -2.10471198
    C     -1.78577261      1.61415956     -3.22009078
    H     -1.10230962      2.13643553     -3.85649185
    H     -2.76864333      1.65696191     -3.64084273
    H     -1.48025777      0.59261049     -3.13066338
    C     -1.79456233      2.27113739     -1.82728682
    N     -1.80110667      2.76028724     -0.79028096
    C     -2.97402364     -0.29041804      5.25175850
    H     -3.70475885     -0.81776042      5.82867812
    H     -3.32558729      0.69986055      5.05013906
    H     -2.05652554     -0.23848229      5.79984518
    C     -2.73683331     -1.03145011      3.92276933
    N     -2.56023433     -1.58318217      2.93327648
    C     -3.96398895     -2.25109997     -3.42939421
    H     -4.17704528     -3.28281334     -3.61667663
    H     -4.80338032     -1.65495425     -3.72082430
    H     -3.77148301     -2.11029627     -2.38631470
    C     -2.72631345     -1.82685950     -4.24166226
    N     -1.80480779     -1.51099318     -4.84643274
