90
Energy:   -415.59254699
    C     -0.10383785     -4.00178401      1.50965444
    H     -0.29446821     -2.95114201      1.44101316
    H      0.94610438     -4.16640684      1.63383064
    H     -0.62994281     -4.40562326      2.34931302
    C     -0.58340757     -4.69576390      0.22124270
    N     -0.94046902     -5.21246346     -0.73803840
    C      1.54413043      1.20076272     -4.74899378
    H      0.85296968      0.48249944     -5.13796020
    H      2.24668811      1.46836096     -5.51037606
    H      1.01156564      2.07319359     -4.43254756
    C      2.29422387      0.59373410     -3.54879543
    N      2.85270254      0.14177370     -2.65519320
    C     -3.70670530     -2.23566790      1.66072366
    H     -4.20154728     -2.36053657      0.72027727
    H     -4.00817407     -3.01532350      2.32867039
    H     -2.64759411     -2.28039248      1.51518230
    C     -4.08494218     -0.86945674      2.26239129
    N     -4.36655672      0.14774956      2.71036019
    C      0.41268987      0.49140435     -0.22272498
    H     -0.19261597      1.26437482     -0.64819140
    H      0.43491799     -0.34914641     -0.88444956
    H      1.40766799      0.85703805     -0.07702108
    C     -0.18013985      0.06242949      1.13231505
    N     -0.62152852     -0.25696179      2.14120395
    C      4.45151426     -0.18055818      0.28036877
    H      5.03601949     -0.03815170      1.16522707
    H      3.96937059      0.73839321      0.01966796
    H      5.08851311     -0.48927046     -0.52202034
    C      3.38738608     -1.26380714      0.53688954
    N      2.59509428     -2.07033523      0.72788091
    C      2.17643967      2.58106429      2.82223540
    H      2.27984553      1.75360170      2.15177805
    H      3.13682725      2.84603862      3.21254732
    H      1.76215499      3.41612761      2.29693877
    C      1.24163091      2.18875927      3.98147195
    N      0.54562330      1.89667036      4.84457624
    C     -3.54976716      1.45376813     -0.36780732
    H     -4.16477868      1.89856857      0.38638998
    H     -3.18890268      2.21442795     -1.02816522
    H     -2.72063434      0.95946358      0.09382118
    C     -4.37731835      0.43023368     -1.16726731
    N     -4.99346782     -0.33183424     -1.76250162
    C     -2.88892842     -0.05711529     -4.69804087
    H     -3.39519512      0.56124595     -5.40953479
    H     -3.60880552     -0.58816745     -4.11096365
    H     -2.26386474     -0.75587809     -5.21372007
    C     -2.02382085      0.82292256     -3.77677963
    N     -1.37970893      1.47815073     -3.09085876
    C      1.34412477     -3.00956280     -2.31928976
    H      0.90140861     -2.66889413     -1.40668501
    H      2.35667475     -2.66798887     -2.37377714
    H      1.32652922     -4.07906472     -2.34676954
    C      0.54931305     -2.45219788     -3.51478911
    N     -0.04246040     -2.03721437     -4.40489272
    C     -2.06284581     -0.56298767      5.37725345
    H     -3.08108476     -0.25246203      5.26925604
    H     -1.42708882      0.10321808      4.83238461
    H     -1.79289520     -0.54673971      6.41251272
    C     -1.90088448     -1.99213819      4.82689236
    N     -1.78029691     -3.05620571      4.41712351
    C      1.67294154     -1.65029523      4.28235479
    H      0.96627049     -1.02476194      4.78656142
    H      1.93134312     -2.47596048      4.91196150
    H      1.24137004     -2.01578853      3.37402678
    C      2.93925709     -0.83621621      3.95782391
    N      3.88208658     -0.23009738      3.71619592
    C      5.52225178      2.62658691     -2.45758886
    H      5.44831576      3.06333175     -1.48358291
    H      6.50162314      2.79921258     -2.85247012
    H      5.34520499      1.57346321     -2.39062616
    C      4.47391488      3.26526093     -3.38747340
    N      3.69338041      3.74078276     -4.07981471
    C      0.79722340      4.12811533     -1.86886391
    H     -0.04411673      3.47434820     -1.77070329
    H      1.09403527      4.17570508     -2.89577044
    H      0.52989313      5.10690038     -1.52913836
    C      1.96569486      3.59183786     -1.02111340
    N      2.83567497      3.19255491     -0.38992461
    C     -2.33345821      2.81782791      3.21384192
    H     -1.99208991      3.37709813      4.05976431
    H     -2.22109884      1.77178127      3.40893389
    H     -3.36482192      3.03819056      3.03320887
    C     -1.50209263      3.20126527      1.97553377
    N     -0.88310317      3.48675182      1.05355707
    C     -3.16375132     -3.38880922     -2.79989456
    H     -3.12977875     -4.39186294     -2.42891034
    H     -2.69905907     -3.34876602     -3.76288820
    H     -4.18285800     -3.07331147     -2.88224649
    C     -2.41470277     -2.45687324     -1.82931660
    N     -1.85700208     -1.76300453     -1.10667718
