90
Energy:   -415.50460989
    C     -2.57878566     -2.80444869     -2.95345799
    H     -2.10418244     -1.89454588     -3.25632569
    H     -3.54537089     -2.87085196     -3.40755347
    H     -1.98209954     -3.63757156     -3.26130704
    C     -2.72948162     -2.81938335     -1.42092163
    N     -2.84168160     -2.83050288     -0.27987865
    C     -1.13848670     -0.00834888      0.59067641
    H     -0.43645127      0.65956439      1.04448066
    H     -0.85748167     -1.01887087      0.80229060
    H     -2.11556401      0.17998419      0.98405878
    C     -1.14706921      0.21369313     -0.93320800
    N     -1.15345927      0.37901351     -2.06780921
    C     -5.58691108     -0.67180974     -0.04102449
    H     -6.56655078     -0.50774697      0.35683184
    H     -5.07391263     -1.39301418      0.56030391
    H     -5.66567536     -1.03521766     -1.04433400
    C     -4.80193344      0.65309586     -0.03508787
    N     -4.21748191      1.63954831     -0.03066780
    C      2.06087465      1.66606901     -2.79834984
    H      1.10514108      1.48753069     -3.24511330
    H      2.74434349      0.90010886     -3.10013535
    H      2.43036708      2.61890260     -3.11533969
    C      1.92093919      1.65407262     -1.26476770
    N      1.81675087      1.64514076     -0.12294610
    C      2.17537973     -0.91261496      2.29865758
    H      2.41025764     -0.80458518      1.26035988
    H      3.06363279     -0.78193551      2.88074732
    H      1.45309898     -0.17485528      2.57958506
    C      1.59845402     -2.31800278      2.55093087
    N      1.16890661     -3.36437789      2.73875981
    C      2.48989014      5.26537168     -0.51072788
    H      2.39575513      5.01058598     -1.54567862
    H      2.69795570      6.31086809     -0.41828836
    H      1.57621986      5.03726030     -0.00272108
    C      3.64091956      4.45564777      0.11463478
    N      4.49791328      3.85277151      0.58024571
    C      2.47450082      2.65363662      3.20526211
    H      3.19543463      3.28968473      3.67494011
    H      2.92935319      2.14808278      2.37917269
    H      2.11969260      1.93345590      3.91261630
    C      1.29290417      3.50234579      2.70016598
    N      0.41315176      4.13424835      2.32409895
    C     -2.64774141      2.49108369      3.37111983
    H     -3.22874868      2.07502923      2.57473461
    H     -2.26374399      3.44405947      3.07231848
    H     -3.26411404      2.61064681      4.23754266
    C     -1.47707659      1.54623516      3.70036918
    N     -0.60546342      0.84275249      3.94551029
    C     -3.51798135      2.28349784     -3.52076943
    H     -3.70362842      2.78373123     -2.59329873
    H     -3.95561614      2.84248417     -4.32133745
    H     -2.46259905      2.20269530     -3.67741630
    C     -4.13988408      0.87530597     -3.47795994
    N     -4.60291894     -0.17315689     -3.44608632
    C      1.32269955     -2.00648247     -3.41136192
    H      2.32349062     -1.75364378     -3.69312427
    H      0.65015375     -1.25706121     -3.77323072
    H      1.06172371     -2.95410439     -3.83421343
    C      1.22588168     -2.08512051     -1.87642142
    N      1.15379637     -2.14367012     -0.73358844
    C     -0.40393810     -5.16868748      0.36298477
    H      0.39688080     -5.65256869      0.88206880
    H     -1.32240434     -5.67653253      0.57134084
    H     -0.47687556     -4.15189991      0.68813436
    C     -0.12963796     -5.20475708     -1.15196026
    N      0.07459095     -5.23161253     -2.27990569
    C     -1.68965690      3.88170904     -0.22276865
    H     -2.72682952      3.83932734     -0.48233933
    H     -1.51243795      4.73333036      0.40031535
    H     -1.41722140      2.99126897      0.30429345
    C     -0.84406842      3.99857722     -1.50453382
    N     -0.21448936      4.08559089     -2.45886626
    C     -2.10287624     -2.56429431      3.30694511
    H     -1.26276466     -2.14581413      3.82074181
    H     -1.79545676     -2.90790595      2.34137616
    H     -2.49249151     -3.38611803      3.87059820
    C     -3.19371036     -1.48923531      3.14592004
    N     -4.00588595     -0.68880501      3.02602956
    C      5.24738401      0.51460710      0.23926433
    H      5.84161705     -0.10737719      0.87559980
    H      4.41210043      0.89374469      0.79013193
    H      5.84049150      1.33116900     -0.11619208
    C      4.74068431     -0.31111541     -0.95783122
    N      4.36342334     -0.92590334     -1.84912327
    C      3.68458438     -4.26972624     -0.13431182
    H      2.67792839     -4.38828510      0.20845295
    H      4.16462782     -5.22538971     -0.16843991
    H      3.67949346     -3.83798314     -1.11332718
    C      4.44984129     -3.34503478      0.83053406
    N      5.01960984     -2.65655996      1.54890567
