90
Energy:   -415.40843687
    C     -2.34778665     -4.52156206      0.78029700
    H     -3.15968271     -5.07010130      1.21021521
    H     -2.02069061     -3.77049078      1.46862774
    H     -1.53844265     -5.18896350      0.56949688
    C     -2.81488819     -3.85249643     -0.52575328
    N     -3.16266652     -3.35434665     -1.49816708
    C      4.20664716      2.30565279     -2.54417411
    H      3.34569343      2.47370930     -3.15688601
    H      4.50972553      1.28288024     -2.62771403
    H      5.00415187      2.94152418     -2.86752052
    C      3.86175942      2.62062603     -1.07671226
    N      3.60497481      2.85513793      0.01587980
    C      0.91133703      1.86359584      1.79244303
    H      1.54817954      2.63353735      2.17522480
    H      0.48299190      2.18309447      0.86543701
    H      1.48375167      0.97376431      1.63294253
    C     -0.21259452      1.57630817      2.80528244
    N     -1.04941265      1.36240945      3.55938741
    C     -1.78893440     -0.36001892     -0.40101490
    H     -1.74454921      0.70306475     -0.28795185
    H     -2.80445578     -0.68580493     -0.31453438
    H     -1.40758817     -0.63263200     -1.36286534
    C     -0.94007621     -1.02881853      0.69613907
    N     -0.30806270     -1.52677024      1.51302008
    C     -0.27969103     -2.58196886     -3.49317858
    H      0.29047069     -2.96994326     -4.31128105
    H     -0.12828624     -1.52510425     -3.42237701
    H     -1.31804193     -2.78348937     -3.65478304
    C      0.17624246     -3.25463307     -2.18503199
    N      0.51570567     -3.75546215     -1.21105739
    C      5.68529111      0.88465029      2.09230927
    H      6.43156454      1.60218502      2.36271648
    H      5.74971776      0.03961453      2.74550363
    H      4.71565335      1.32883658      2.17833385
    C      5.91404297      0.42885941      0.63919976
    N      6.08435913      0.08950238     -0.44270633
    C     -4.13346444      1.95227742      1.91582476
    H     -3.42406930      1.19933480      2.18920385
    H     -5.01862745      1.83956230      2.50631678
    H     -3.71066965      2.92000089      2.08803087
    C     -4.48899915      1.80537882      0.42464540
    N     -4.75371090      1.69600614     -0.68560541
    C      1.32781201      5.30237420     -0.44731020
    H      2.27467939      5.74737996     -0.22300635
    H      1.19001857      4.43203048      0.15966086
    H      0.54665266      6.00522050     -0.24557707
    C      1.28763579      4.90296894     -1.93407222
    N      1.25772277      4.60559357     -3.04103413
    C      2.84520377     -1.09521343     -0.42423903
    H      3.69071566     -1.64427037     -0.06570549
    H      1.94554695     -1.55864495     -0.07675102
    H      2.89221477     -0.09010347     -0.06031181
    C      2.85547134     -1.08459388     -1.96416819
    N      2.86311600     -1.07668715     -3.11071544
    C      1.07536047     -1.25218569      4.73392714
    H      0.14569683     -1.15720259      4.21277082
    H      1.15910928     -0.47010931      5.45935237
    H      1.11266505     -2.20122999      5.22669724
    C      2.23915682     -1.14858116      3.73071023
    N      3.10565610     -1.07144288      2.98376964
    C      1.80812794     -4.32005944      1.84617854
    H      1.83533731     -3.34141787      1.41441412
    H      1.61930759     -5.04277285      1.08006413
    H      2.74831616     -4.53088033      2.31147388
    C      0.68755675     -4.38498028      2.90055299
    N     -0.14675944     -4.43331680      3.68558270
    C      0.61982130      1.37937589     -4.40706136
    H      1.33019983      0.66284436     -4.76321454
    H      0.88508458      2.35250082     -4.76422009
    H     -0.35564317      1.12219244     -4.76374729
    C      0.61956603      1.38022513     -2.86706162
    N      0.61937597      1.38085743     -1.72046181
    C     -2.28016156      3.38720030     -2.42096234
    H     -2.29091616      2.34027302     -2.64170610
    H     -1.55934304      3.87547559     -3.04298083
    H     -3.24949861      3.80072520     -2.60611609
    C     -1.90700138      3.59607516     -0.94152908
    N     -1.62916666      3.75159199      0.15997623
    C     -2.74820582     -1.81194005      4.20551079
    H     -2.43279266     -0.84638064      4.54182872
    H     -1.88998597     -2.42635299      4.02985623
    H     -3.36499702     -2.26596803      4.95272314
    C     -3.54964318     -1.66386733      2.89884610
    N     -4.14634973     -1.55362045      1.92597484
    C     -4.96094442     -0.86798996     -2.81551034
    H     -5.25971440     -1.77777273     -3.29293256
    H     -5.70244499     -0.11561909     -2.98584553
    H     -4.85695857     -1.03461768     -1.76369227
    C     -3.61339197     -0.40161428     -3.39705664
    N     -2.61007791     -0.05437639     -3.83004430
