90
Energy:   -415.36943815
    C     -2.17617864     -4.70714688      1.05144601
    H     -2.77364024     -5.49869879      1.45317402
    H     -2.54343874     -3.76723569      1.40723538
    H     -1.16026900     -4.83396110      1.36248434
    C     -2.24985116     -4.73815569     -0.48647818
    N     -2.30470369     -4.76124316     -1.63153265
    C      4.61211012      1.56425156     -3.58655730
    H      4.54937974      0.54421521     -3.90356032
    H      5.58970515      1.94412416     -3.79846260
    H      3.88226614      2.14591717     -4.10990420
    C      4.34581818      1.64844533     -2.07209369
    N      4.14755173      1.71113142     -0.94450670
    C     -0.87028944      4.45000773      3.47060803
    H     -1.33929150      5.32948687      3.08143752
    H     -0.30994682      3.97155962      2.69471973
    H     -0.21296161      4.72051354      4.27038663
    C     -1.94781419      3.48349495      3.99633938
    N     -2.75008035      2.76388226      4.38777027
    C     -0.53216190     -0.88691250      0.28284078
    H     -1.10409790     -1.66589017      0.74216982
    H      0.48157512     -1.20930173      0.16750852
    H     -0.94563091     -0.65971324     -0.67753569
    C     -0.57293888      0.37123770      1.16996835
    N     -0.60329920      1.30798771      1.83047514
    C      0.75586311     -3.74367286     -2.91923838
    H      1.70551799     -3.71243611     -3.41125471
    H      0.20834982     -2.85220290     -3.14375920
    H      0.20546434     -4.59563078     -3.26001394
    C      0.96924301     -3.84549840     -1.39749577
    N      1.12811405     -3.92131215     -0.26448923
    C      2.84175362      2.45369505      2.27585156
    H      3.49702017      2.67480639      1.45937394
    H      3.24735384      2.85997065      3.17880654
    H      1.88124583      2.88691874      2.08973033
    C      2.69731146      0.92720588      2.41926450
    N      2.58976770     -0.20933469      2.52604195
    C     -3.76987982      2.42011986      0.81221220
    H     -3.30584400      1.51219116      0.48781059
    H     -4.69109006      2.55778793      0.28560201
    H     -3.96441771      2.36559545      1.86296488
    C     -2.83189962      3.60719590      0.52473416
    N     -2.13353072      4.49102796      0.31069368
    C      0.86361511      3.00827768     -0.88187709
    H      1.39133423      2.17242957     -0.47227892
    H     -0.18890218      2.86144963     -0.75718557
    H      1.16169363      3.90180151     -0.37427148
    C      1.18992249      3.13659061     -2.38143011
    N      1.43287317      3.23212541     -3.49791550
    C      3.74401249     -1.62494595     -0.36443631
    H      4.59348652     -1.10102823      0.02131529
    H      3.65027153     -2.56763610      0.13300415
    H      2.86088659     -1.04428298     -0.19764824
    C      3.92736329     -1.85794770     -1.87562546
    N      4.06387629     -2.03142810     -3.00077448
    C     -0.02950712      0.36420027      5.18304488
    H      0.03158367     -0.03105360      4.19060220
    H     -1.05210659      0.56730278      5.42374965
    H      0.36510849     -0.34922748      5.87600842
    C      0.78639661      1.66755956      5.26763620
    N      1.39387401      2.63796979      5.33061828
    C      1.77819022     -3.37270147      3.00294065
    H      2.16465554     -2.92617624      2.11066269
    H      1.80626318     -4.43824981      2.90957193
    H      2.37418428     -3.07212078      3.83920701
    C      0.32377644     -2.91438158      3.21793703
    N     -0.75910073     -2.57314160      3.37801161
    C      1.50976263     -0.14005131     -5.05068587
    H      1.59997014      0.87376169     -5.38075554
    H      0.67519851     -0.60051557     -5.53686946
    H      2.40389113     -0.67517565     -5.29373991
    C      1.29420269     -0.16628087     -3.52607250
    N      1.13370853     -0.18580998     -2.39092855
    C     -1.72582771      2.17836706     -4.55721058
    H     -1.09499796      3.04253608     -4.57009079
    H     -2.65222809      2.40578014     -5.04194219
    H     -1.24137650      1.37542574     -5.07246911
    C     -1.99767506      1.76293935     -3.09943184
    N     -2.20007776      1.45363455     -2.01404931
    C     -3.43969051     -0.48250703      3.53512799
    H     -4.29348624      0.06218077      3.88045136
    H     -2.58754285      0.16433148      3.51659713
    H     -3.24990928     -1.30363617      4.19439205
    C     -3.71046211     -1.01560300      2.11594110
    N     -3.91206387     -1.41251718      1.05929195
    C     -3.43890149     -1.74259911     -2.40568862
    H     -4.07204193     -2.58425929     -2.59447823
    H     -4.03772792     -0.86192638     -2.30214371
    H     -2.88694769     -1.90666707     -1.50384173
    C     -2.46018927     -1.56261251     -3.58098739
    N     -1.73149354     -1.42860430     -4.45605076
