90
Energy:   -415.36012292
    C     -2.04703826     -4.52706416      1.25468404
    H     -2.89185443     -5.04113294      1.66324139
    H     -1.84289425     -3.65495476      1.84004675
    H     -1.19476505     -5.17384195      1.26910496
    C     -2.35158614     -4.11149773     -0.19657581
    N     -2.57833588     -3.80208963     -1.27710473
    C      4.49134195      2.07003484     -2.74173458
    H      3.65432504      2.31124171     -3.36312183
    H      4.80135597      1.06443042     -2.93551315
    H      5.29842487      2.73942645     -2.95488036
    C      4.08823534      2.20677265     -1.26173193
    N      3.78810415      2.30858016     -0.15980269
    C      0.60391627      2.21550369      1.40825140
    H      1.03821678      3.06021342      1.90094675
    H      0.48853418      2.43066963      0.36647902
    H      1.24249971      1.36538301      1.52827276
    C     -0.77417308      1.91361274      2.02577192
    N     -1.80022324      1.68884121      2.48554401
    C     -1.77985449     -0.45979527     -0.61353843
    H     -1.96642613      0.57725527     -0.42748097
    H     -2.70312394     -0.99965076     -0.58146554
    H     -1.33314982     -0.57420245     -1.57907715
    C     -0.82543208     -1.01072462      0.46217283
    N     -0.11482121     -1.42091657      1.26308875
    C      0.50545000     -3.09272700     -2.68832770
    H      1.31319630     -3.18073809     -3.38453180
    H      0.32218812     -2.05862584     -2.48351325
    H     -0.37490496     -3.53513791     -3.10563673
    C      0.87371297     -3.81764978     -1.38047857
    N      1.14790149     -4.35738773     -0.40672544
    C      4.39876871      2.09279283      3.12198954
    H      5.20519503      2.15565113      2.42154283
    H      4.72940296      2.43979673      4.07863388
    H      3.58484387      2.69970279      2.78422374
    C      3.93369398      0.62939837      3.23938696
    N      3.58742470     -0.46016532      3.32679468
    C     -4.68607083      2.03022058      0.62885220
    H     -4.54919435      1.19814014      1.28749258
    H     -5.62169161      2.50362463      0.84192840
    H     -3.89083599      2.73192837      0.77065072
    C     -4.68101984      1.53651094     -0.82985452
    N     -4.67725915      1.16892166     -1.91592797
    C      1.43375030      5.02604082     -0.99639489
    H      1.87391822      6.00108005     -1.01762911
    H      1.99328365      4.39641328     -0.33655347
    H      0.42399483      5.09802457     -0.64982410
    C      1.44822089      4.42530232     -2.41431727
    N      1.45899490      3.97802520     -3.47002493
    C      3.10738732     -1.21101847      0.06852745
    H      2.58236457     -2.08534177      0.39227126
    H      2.50525121     -0.34549037      0.25071497
    H      4.02668579     -1.12626215      0.60945793
    C      3.40655146     -1.32034589     -1.43817370
    N      3.62929276     -1.40174513     -2.55998118
    C      0.49932332     -0.12396574      4.92848354
    H      1.19588599     -0.74404414      5.45308186
    H      0.37080901     -0.49496501      3.93312295
    H     -0.44176938     -0.13502004      5.43752325
    C      1.03622925      1.31835773      4.87339254
    N      1.43598012      2.39223312      4.83237479
    C      1.83340235     -3.59653585      3.04545445
    H      2.04491948     -2.63388725      2.62895911
    H      1.77836132     -4.32081260      2.25977464
    H      2.61146954     -3.86878135      3.72765159
    C      0.48835622     -3.54778303      3.79383542
    N     -0.51309176     -3.51148433      4.35103907
    C      1.28117233      0.52040912     -4.51701981
    H      2.12109129     -0.12282182     -4.67730170
    H      1.45840769      1.46323264     -4.99090856
    H      0.40357232      0.07145341     -4.93314008
    C      1.08031810      0.73538078     -3.00538336
    N      0.93077299      0.89543695     -1.87990131
    C     -1.94745332      2.56342695     -3.49913808
    H     -1.82628983      1.50052275     -3.52045108
    H     -1.19650433      3.02031192     -4.10924531
    H     -2.91625579      2.81956068     -3.87425991
    C     -1.80829178      3.06700142     -2.05046738
    N     -1.70467969      3.44193550     -0.97186619
    C     -2.94476169     -1.22138542      3.72219452
    H     -1.89981759     -1.20960868      3.49229600
    H     -3.15102001     -2.01998828      4.40380297
    H     -3.22200441     -0.28988354      4.16978786
    C     -3.75282141     -1.42961076      2.42786779
    N     -4.35445860     -1.58464399      1.46418270
    C     -4.34199945     -1.85542053     -3.33867913
    H     -4.52317657     -2.87003413     -3.62614093
    H     -5.08513317     -1.22244175     -3.77684488
    H     -4.38693393     -1.77324963     -2.27278611
    C     -2.94700825     -1.42441559     -3.82840792
    N     -1.90837389     -1.10351283     -4.19303326
