73
Energy:   -457.89843061
C   -3.03842394  -1.05991486  -2.06173622
H   -3.80351848  -0.97032591  -1.31910283
H   -2.10272806  -1.26847465  -1.58647301
H   -3.28354395  -1.85714664  -2.73198748
C   -2.93117259   0.25873440  -2.84993752
N   -2.85131908   1.24052871  -3.43678922
C   -0.32635589   3.26015531  -2.27490487
H   -1.31479311   3.61159964  -2.48556796
H   -0.38244397   2.31305599  -1.78017658
H    0.21666791   3.15263220  -3.19058114
C    0.39543264   4.27220795  -1.36585549
N    0.93283701   5.02572713  -0.68902691
C   -2.19979415   0.82672712   3.58440852
H   -3.02337926   1.49414981   3.43896201
H   -2.56225348  -0.11448572   3.94167692
H   -1.68896431   0.68280405   2.65530243
C   -1.22798812   1.42792297   4.61676340
N   -0.50443436   1.87554061   5.38539853
C    0.57466805   3.41548517   2.27468523
H    0.92456019   3.09757004   3.23458399
H    1.23822628   4.15668636   1.88071777
H    0.54241808   2.57674695   1.61107598
C   -0.83752958   4.01342678   2.41526869
N   -1.88897490   4.45862148   2.51993946
C   -3.12988070   2.46457062   0.01573279
H   -2.10575519   2.20986736   0.19234924
H   -3.36016950   3.38279230   0.51446628
H   -3.29272896   2.57912807  -1.03557884
C   -4.03803402   1.34472097   0.55683752
N   -4.71419545   0.51094201   0.95971459
C    0.56998059   0.12384564  -3.97815101
H    0.83368499   1.10066167  -4.32627543
H    0.42948581   0.14900806  -2.91771376
H   -0.33710078  -0.19039730  -4.45075429
C    1.69817193  -0.86598117  -4.32315418
N    2.53816167  -1.60295221  -4.58002473
C    3.30633348  -1.46959043  -1.24275390
H    3.81721078  -0.83505062  -1.93648569
H    2.26358837  -1.22963457  -1.24105169
H    3.43666188  -2.49162118  -1.53148687
C    3.88425112  -1.25724979   0.16881355
N    4.31453707  -1.09915254   1.21978968
C   -2.42933087  -2.20215131   1.60385025
H   -3.24633106  -2.38310171   2.27068443
H   -2.64380895  -1.34413867   1.00159402
H   -1.53871211  -2.02668127   2.17033729
C   -2.22659812  -3.42916266   0.69558675
N   -2.07565438  -4.34272839   0.01934330
C    0.23106111  -3.46199786  -2.33605850
H    1.24454937  -3.51248656  -2.67545891
H   -0.03042645  -4.38163425  -1.85565008
H    0.12731537  -2.65469279  -1.64151229
C   -0.70194309  -3.22765832  -3.53863414
N   -1.39660712  -3.05318189  -4.43400636
C    1.31070527  -3.52401503   1.44744660
H    0.88758549  -2.68382428   0.93759434
H    1.97042010  -3.17950226   2.21620299
H    0.52746847  -4.10739951   1.88459847
C    2.09746214  -4.38946648   0.44564452
N    2.68323839  -5.03383442  -0.30024267
C    1.89328539  -0.13815905   3.47252111
H    1.80178416   0.76479586   4.03926633
H    1.71223380   0.06975931   2.43865005
H    2.88051295  -0.53398089   3.58916554
C    0.86468620  -1.16730040   3.97695324
N    0.09884734  -1.93354291   4.35252589
C    3.19905903   2.20116446  -0.09628403
H    2.46407074   1.54510965   0.32118989
H    3.01481645   3.20119320   0.23672691
H    4.17340135   1.89333077   0.22119756
C    3.11973962   2.14914946  -1.63336011
N    3.06068272   2.11042192  -2.77778311
Cl  -0.04490933   0.06183450   0.09699372
