73
Energy:   -459.23920771
C   -0.28897264   2.21351039  -3.07729596
H   -0.22966782   2.15100574  -4.14382129
H   -1.22167445   1.80588088  -2.74744054
H    0.51628470   1.65929093  -2.64220918
C   -0.19090229   3.68781647  -2.64324091
N   -0.11788446   4.78550436  -2.32006719
C   -2.07936806  -1.37263249  -3.36966255
H   -1.52842746  -1.05736938  -2.50828353
H   -2.00890618  -2.43570649  -3.46869727
H   -3.10594693  -1.09201160  -3.25881653
C   -1.49621591  -0.70022691  -4.62640608
N   -1.06203263  -0.19959039  -5.56210877
C   -1.98626423   0.78120812   3.53649946
H   -1.53313760   0.46184161   2.62130468
H   -2.40294787  -0.06460173   4.04234482
H   -1.24721536   1.24066440   4.15907940
C   -3.10239478   1.79691930   3.22960635
N   -3.93340472   2.55316245   3.00111048
C   -3.62342061   1.01019044  -0.17789839
H   -4.24546850   1.76622130   0.25381210
H   -2.93256879   1.46241819  -0.85842240
H   -3.08339010   0.50728798   0.59692756
C   -4.49968863  -0.00499692  -0.93496441
N   -5.15211000  -0.76085006  -1.49863447
C   -1.21016687   3.79874221   0.85453059
H   -2.26726055   3.79255490   1.02010486
H   -0.93181798   2.93067982   0.29427289
H   -0.93992867   4.67791077   0.30778288
C   -0.47829619   3.79166271   2.20949006
N    0.06661480   3.78639171   3.21831898
C    1.93601880  -0.84088884  -3.49729411
H    2.27858338   0.09084268  -3.89657604
H    1.35489192  -0.65972041  -2.61731193
H    1.33314510  -1.34115600  -4.22611176
C    3.14705979  -1.72262367  -3.14018990
N    4.04873485  -2.37911532  -2.87430959
C    1.47733894  -3.55489738  -0.49508644
H    2.50915238  -3.45649991  -0.76075382
H    1.35919566  -4.37868179   0.17746134
H    1.14407359  -2.65595019  -0.01997883
C    0.64198843  -3.80469485  -1.76449210
N    0.02003200  -3.99068043  -2.70962232
C   -2.53546326  -2.95860516  -0.04052006
H   -2.20250653  -3.96643771   0.09480751
H   -1.71985500  -2.35642714  -0.38266607
H   -3.32288179  -2.93731385  -0.76468705
C   -3.05524511  -2.40540847   1.29940540
N   -3.44224633  -1.99352839   2.29704082
C    0.07893384  -2.40945125   3.09942712
H   -0.75956816  -2.04019128   3.65211296
H    0.25662244  -1.77621918   2.25542297
H    0.94484858  -2.41739346   3.72793939
C   -0.21625929  -3.84086210   2.61411898
N   -0.43604399  -4.90661255   2.25278501
C    1.80934349   0.93200741   3.44305673
H    1.18811451   0.87066171   2.57402771
H    1.31468216   1.51065739   4.19496993
H    1.99762116  -0.05263727   3.81712285
C    3.14441464   1.60462945   3.07323971
N    4.13843579   2.10542713   2.79789414
C    3.81836242  -0.53232883   0.18472441
H    4.25887347   0.39075285   0.49900198
H    2.88929684  -0.33467822  -0.30789155
H    4.48095579  -1.03200849  -0.49069351
C    3.56787613  -1.42618198   1.41349744
N    3.38137770  -2.09169628   2.32837482
C    2.39500586   3.14730619  -0.10248299
H    3.19238040   3.42545817   0.55457522
H    1.77902687   2.41395848   0.37466490
H    1.80689231   4.01042060  -0.33498043
C    2.98037678   2.56020718  -1.40027174
N    3.41621204   2.12308527  -2.36653445
Cl  -0.08321783   0.10459716  -0.04043232
