73
Energy:   -459.44846231
C   -3.03065406   0.94296645  -2.47482300
H   -2.43482651   0.90098873  -1.58705751
H   -4.02083129   1.26242744  -2.22503746
H   -2.59545023   1.63615413  -3.16401641
C   -3.08945361  -0.45407660  -3.12012397
N   -3.13323254  -1.49423865  -3.60057987
C   -0.73882365   3.86696251  -0.65072874
H   -0.06416099   4.64030369  -0.34795176
H   -0.51614097   2.96884336  -0.11342668
H   -1.74389616   4.16817543  -0.44096908
C   -0.58377678   3.61302762  -2.16171436
N   -0.46833734   3.42396155  -3.28671183
C   -0.46565738   0.06204062   4.00973226
H   -1.22660133   0.78522726   4.21677226
H   -0.75848189  -0.88744682   4.40675431
H   -0.33026604  -0.02025961   2.95152862
C    0.85612152   0.50619619   4.66335782
N    1.84024599   0.83689021   5.15001176
C    2.12934839   2.70320589   2.09652649
H    2.75864641   3.42402231   1.61766546
H    1.88681606   1.92500522   1.40335921
H    2.64197456   2.28484442   2.93741126
C    0.83489417   3.38792531   2.57312650
N   -0.12888584   3.89773005   2.92797687
C   -2.81870909   2.03261182   1.97490133
H   -1.95200632   1.59167898   1.52846577
H   -3.07818091   1.49130080   2.86065289
H   -2.61062825   3.05131866   2.22756282
C   -3.99215068   1.98013232   0.97896924
N   -4.86583128   1.94105894   0.23745253
C    0.20608554   0.19461108  -4.16564434
H    0.00040084   0.13168519  -3.11748675
H   -0.71465587   0.18966899  -4.71072224
H    0.73734614   1.10039440  -4.37111414
C    1.06268048  -1.01136278  -4.59398083
N    1.70045435  -1.90926513  -4.91289683
C    2.96118870  -1.13485990   2.29529245
H    3.08574572  -0.92463609   3.33701779
H    3.11906859  -2.17864769   2.12070695
H    1.96961603  -0.86879250   1.99381135
C    3.98181594  -0.31808761   1.48116528
N    4.74171931   0.29003650   0.87501059
C   -3.43297264  -1.64910985   0.26825274
H   -4.11187414  -0.92840917  -0.13743615
H   -3.76789830  -2.63434532   0.01918453
H   -2.45726919  -1.48995752  -0.14110334
C   -3.37810293  -1.49743761   1.79978297
N   -3.33724993  -1.38451073   2.94007684
C   -0.48940025  -3.27730942  -2.28071067
H    0.44012647  -3.79750259  -2.38209764
H   -0.32577614  -2.35051701  -1.77161139
H   -0.89768395  -3.08417162  -3.25071134
C   -1.47509872  -4.14048397  -1.47143429
N   -2.20899603  -4.78315665  -0.86889125
C    3.07180990  -1.80058740  -1.68397486
H    2.20854889  -1.16841318  -1.67794493
H    3.26788449  -2.12698621  -2.68393369
H    3.91545221  -1.25576464  -1.31473929
C    2.81784487  -3.02481512  -0.78488183
N    2.62875636  -3.93630830  -0.11546621
C   -0.28001791  -3.45690372   1.75451274
H    0.20782972  -4.22964704   1.19794053
H   -0.17964273  -2.52627489   1.23609794
H   -1.31758701  -3.69532553   1.86177173
C    0.36670599  -3.34099142   3.14732017
N    0.84822133  -3.25468945   4.18432861
C    2.77487891   1.94340675  -1.73382794
H    2.88506709   1.32726963  -0.86599512
H    3.58001830   1.75163143  -2.41196648
H    1.84433617   1.72135812  -2.21308123
C    2.79677740   3.42578339  -1.31707869
N    2.81308183   4.52948019  -1.00678994
Cl   0.03970020   0.10496618  -0.11583850
