73
Energy:   -461.09365123
C   -2.46603869  -2.53592483  -1.96939693
H   -1.76433298  -3.00257866  -2.62874773
H   -3.10787746  -3.28043780  -1.54673568
H   -1.93902002  -2.03281685  -1.18579450
C   -3.31071677  -1.51684762  -2.75654405
N   -3.93961800  -0.75809832  -3.34261086
C    1.63778766   3.30850111  -1.46834796
H    1.07762004   2.41143922  -1.30589064
H    1.41099554   3.69994302  -2.43800649
H    1.37871383   4.03075832  -0.72261050
C    3.14329674   2.99670489  -1.37988595
N    4.26421668   2.76455844  -1.31402196
C   -1.18132008   3.69114163   0.98896664
H   -0.87153901   4.43100500   0.28077312
H   -0.68726614   2.76592023   0.77736525
H   -0.92619924   4.01395305   1.97669395
C   -2.70542760   3.49331117   0.89119459
N   -3.84019492   3.34601739   0.81839885
C    3.19637647   1.13150552   1.70614783
H    4.10629585   1.33804772   1.18242344
H    2.56320776   0.52302049   1.09480304
H    3.41812681   0.61385442   2.61596276
C    2.47890640   2.45503571   2.03034613
N    1.94471731   3.44046409   2.27172649
C   -2.41346714   2.13644670  -2.42998569
H   -3.32701175   2.13983464  -1.87291753
H   -1.70519508   1.49416411  -1.94964950
H   -2.60173579   1.78139538  -3.42164721
C   -1.84706097   3.56698847  -2.49582130
N   -1.42534584   4.63209183  -2.54483890
C   -0.15733425  -0.34670328  -3.99883681
H   -1.16357999  -0.18789040  -4.32617174
H   -0.14925091  -0.52348843  -2.94357345
H    0.25294308  -1.19500753  -4.50574065
C    0.68878229   0.90008954  -4.31694759
N    1.31875452   1.82838347  -4.55379551
C    2.90383057  -2.46138561   2.75328017
H    3.04321183  -2.07816608   3.74253031
H    2.30595901  -1.77813066   2.18705463
H    3.85576063  -2.57980353   2.27924911
C    2.19364491  -3.82588080   2.82669148
N    1.66487940  -4.84180949   2.88134953
C    0.95040106  -3.54276815  -0.44257565
H   -0.07907383  -3.54122745  -0.15089215
H    1.44238194  -2.69219516  -0.01904349
H    1.41942370  -4.43787003  -0.09085205
C    1.04894882  -3.48089720  -1.97817336
N    1.12232211  -3.43483146  -3.12149565
C   -1.14240905  -2.45208359   2.82670925
H   -0.65245283  -3.21062190   3.40069769
H   -1.63783349  -1.77019130   3.48585765
H   -0.41821364  -1.92221286   2.24389101
C   -2.17684077  -3.10438956   1.89073492
N   -2.94702221  -3.59006100   1.19385949
C    3.17028718  -0.46540944  -2.19134349
H    2.32560214   0.04723088  -1.78072533
H    2.84511122  -1.11915149  -2.97350780
H    3.86248523   0.24794678  -2.58742916
C    3.85776598  -1.28902959  -1.08652552
N    4.36962519  -1.90225223  -0.26393832
C   -3.91328696  -0.04050406   0.59273713
H   -4.67548419   0.63250722   0.25955340
H   -4.14571119  -1.03253526   0.26600764
H   -2.97048113   0.25788748   0.18410680
C   -3.83871108  -0.01081454   2.13064381
N   -3.78318594   0.01129066   3.27568524
C   -0.60644348   1.26644798   3.63879031
H   -0.31719570   2.29534858   3.58780555
H   -1.47998520   1.17136112   4.24934944
H   -0.81882164   0.90642964   2.65381244
C    0.54017082   0.44061004   4.25105443
N    1.39387729  -0.17426384   4.70691289
Cl  -0.06374502  -0.05335594  -0.03814530
