27
Energy:   -105.09502147
O   -0.56726075  -1.59937136   1.68234237
H    0.25003267  -1.22597544   1.35243512
H   -1.24040968  -1.26471069   1.08980157
C   -0.44931818  -3.76129655  -0.73897876
H    0.21900303  -3.99576990   0.06306188
H   -0.72196046  -4.66066424  -1.25054795
H   -1.32806320  -3.29410725  -0.34598964
C    0.24593710  -2.80181467  -1.72265280
N    0.76358626  -2.08743680  -2.45504284
C   -1.25227375   1.60392457   2.53340237
H   -0.47092667   0.92844481   2.81290913
H   -2.12187010   1.04703164   2.25309620
H   -1.48737875   2.23957086   3.36139906
C   -0.78688446   2.46276602   1.34285452
N   -0.44038099   3.10221252   0.45643753
C    2.90156275   2.11188509  -0.14139394
H    3.53416027   2.43710646   0.65795054
H    2.18454099   2.87489959  -0.36182028
H    3.49543963   1.91879439  -1.01025833
C    2.16833046   0.82354289   0.27591264
N    1.62240569  -0.13568645   0.58661635
C   -0.75099299   1.07015298  -2.37909401
H   -1.43362253   1.77313347  -2.80890272
H   -0.40634075   0.39838659  -3.13727858
H    0.08307090   1.59333750  -1.96014951
C   -1.46498808   0.27223200  -1.27223670
N   -1.99658988  -0.32185644  -0.44813112
