27
Energy:   -104.65744257
O    0.08812450  -0.25127656  -2.50457172
H   -0.61630274  -0.38995076  -1.87149702
H    0.83171320   0.03916223  -1.97641169
C    2.13697640   1.45384463   1.88392573
H    1.17520252   1.84798427   2.13798308
H    2.87950200   2.21305728   2.01488745
H    2.36093768   0.62254008   2.51927853
C    2.13019318   0.99033579   0.41535038
N    2.12514276   0.64523239  -0.67807072
C   -1.30668237   2.84070426  -1.75496409
H   -0.44151854   2.39671845  -2.20135891
H   -1.33979362   3.88181236  -1.99970202
H   -2.18680630   2.35880519  -2.12652062
C   -1.23749544   2.67486865  -0.22548323
N   -1.18598262   2.55139650   0.91328480
C    0.82008774  -3.26137637  -1.01749868
H    1.78234972  -3.04612729  -1.43297418
H    0.09754050  -2.58315550  -1.42103434
H    0.54246479  -4.26536902  -1.26208680
C    0.87464731  -3.10230603   0.51329193
N    0.91526940  -2.98387092   1.65303511
C   -1.75425568  -0.73680093   2.32226170
H   -2.62101132  -1.25267337   2.67934778
H   -1.76346831   0.26971058   2.68523387
H   -0.87382192  -1.23409225   2.67217145
C   -1.76068264  -0.72722665   0.78230487
N   -1.76546781  -0.72009816  -0.36426298
