27
Energy:   -106.73717397
O    0.41141098  -1.12256203  -1.59496278
H    0.49627278  -0.38653698  -2.20101348
H    0.87953827  -0.84133240  -0.80883393
C    2.03739450   2.95719726  -1.06882306
H    2.56525674   3.73622190  -1.57811890
H    2.72767754   2.37448051  -0.49536897
H    1.30694785   3.38858307  -0.41670875
C    1.33547178   2.05378597  -2.09972195
N    0.81285842   1.38115519  -2.86727304
C    0.21877757   0.60755852   3.06733324
H    0.86569250   1.19411759   3.68567757
H   -0.09578251  -0.26261627   3.60468496
H   -0.63799947   1.18814745   2.79576614
C    0.97355484   0.18013835   1.79484619
N    1.53552083  -0.13809539   0.84742175
C   -2.55260254   0.48323206  -1.21415932
H   -2.24471903   0.58754786  -2.23358374
H   -3.60499857   0.66148054  -1.13939862
H   -2.33372887  -0.50774262  -0.87509798
C   -1.79607418   1.50281529  -0.34254307
N   -1.23280443   2.26194134   0.30641485
C   -0.04129372  -3.68280935   0.43874504
H   -0.20935191  -4.71495349   0.66531758
H    0.97840010  -3.43356984   0.64611733
H   -0.24817074  -3.50655521  -0.59616339
C   -0.96926580  -2.80968462   1.30368494
N   -1.66018319  -2.15960356   1.94767200
