27
Energy:   -106.84266367
O    0.02944273   0.10498089  -2.21406603
H    0.52434042  -0.36398273  -1.54221692
H   -0.81610972  -0.34254992  -2.24551575
C   -1.80365884  -3.17957369   0.55579567
H   -0.76921872  -3.45307813   0.56119364
H   -2.40417174  -4.05772763   0.44121380
H   -2.04982436  -2.69705267   1.47854975
C   -2.07389581  -2.21651437  -0.61513932
N   -2.27509951  -1.49947293  -1.48695363
C   -1.96790082   1.85409951   0.04480816
H   -2.79293851   1.60868290  -0.59078894
H   -1.06461058   1.85788040  -0.52873481
H   -2.12289621   2.82258860   0.47248139
C   -1.85744830   0.80797213   1.16953825
N   -1.77521138   0.02908275   2.00695092
C    2.39238416   2.35459261  -1.89771181
H    1.48402459   2.77434560  -2.27664518
H    2.53484589   1.37880926  -2.31298353
H    3.21568622   2.98160769  -2.16960316
C    2.30976486   2.25242749  -0.36332713
N    2.24825104   2.17636091   0.77909201
C    1.58967612  -0.76360728   2.65443023
H    0.65483423  -0.78012567   3.17471666
H    2.04042563   0.20089889   2.76144334
H    2.23931091  -1.50838388   3.06452967
C    1.35141837  -1.05608002   1.16134854
N    1.17402465  -1.27383927   0.04968135
