27
Energy:   -108.07735528
O    0.27966517  -0.04774173   2.17700785
H   -0.17897546  -0.65602046   1.59745836
H   -0.24748555   0.75084289   2.15237916
C   -0.78593678  -1.59167326  -2.48782378
H   -0.98531079  -2.55397459  -2.91105697
H    0.20365277  -1.28331522  -2.75339285
H   -1.49351411  -0.88286085  -2.86441159
C   -0.90487425  -1.67064391  -0.95445575
N   -0.99342860  -1.72944115   0.18720645
C    1.71150412   1.94955599  -0.45172587
H    1.75742326   2.93577408  -0.03921466
H    2.55266031   1.79208529  -1.09403291
H    1.72808895   1.23046951   0.34044751
C    0.41090668   1.79172599  -1.26113059
N   -0.55744723   1.67421437  -1.86376919
C    2.65030776  -2.19799146   1.53850797
H    3.42770831  -2.92914735   1.61570656
H    1.71879836  -2.63554111   1.83132127
H    2.87330257  -1.37119537   2.18005347
C    2.55116330  -1.70589655   0.08261890
N    2.47734575  -1.33950952  -1.00135669
C   -3.45442490   1.65035644  -0.01839730
H   -4.38663632   1.80766799   0.48273653
H   -3.39585058   0.63551408  -0.35240800
H   -3.38670020   2.30737677  -0.86020294
C   -2.29451142   1.93894212   0.95264287
N   -1.43090311   2.15380729   1.67562642
