27
Energy:   -107.08991919
O   -1.51738130  -0.52644340   1.30383886
H   -1.38113372   0.16137399   0.65224414
H   -1.73336776  -1.30453320   0.78987586
C   -1.31540167  -1.52110499  -3.04367004
H   -1.92095971  -2.00733445  -3.77972747
H   -0.28375457  -1.61597379  -3.31125792
H   -1.57723532  -0.48480944  -2.99433669
C   -1.55180708  -2.17624995  -1.67017175
N   -1.72782166  -2.66403515  -0.64753984
C    1.45098254  -2.05143378   1.17514536
H    0.63826064  -2.74410379   1.24290639
H    1.23531364  -1.18915029   1.77084092
H    2.34643216  -2.51625606   1.53152902
C    1.64231879  -1.62655303  -0.29266484
N    1.78477732  -1.31020999  -1.38551625
C   -0.61668077   2.07017564   3.23937661
H   -1.43073282   2.44432022   2.65436784
H   -0.45518832   2.71388274   4.07869803
H   -0.84935178   1.08471103   3.58524187
C    0.65739186   2.02356241   2.37556752
N    1.60599685   1.98885674   1.73242239
C    1.54727729   2.11990686  -1.89771829
H    1.37298024   2.87325137  -2.63730788
H    2.03730072   1.28295849  -2.34970675
H    2.16600448   2.51879934  -1.12121294
C    0.20236031   1.66612612  -1.30032281
N   -0.79899151   1.32826573  -0.85553472
