27
Energy:   -106.35696303
O    1.11718957   0.22601570  -1.57534741
H    1.10975220   0.57710290  -0.68489005
H    1.55129400  -0.62328018  -1.49483850
C   -0.19629022   3.24894065  -2.07484481
H    0.68090470   3.33242113  -1.46783554
H   -0.47474233   4.21750012  -2.43436680
H    0.00447707   2.60447025  -2.90505533
C   -1.34698916   2.66234409  -1.23615748
N   -2.20373682   2.22559630  -0.61171664
C   -1.43670484  -1.86975545  -1.72045683
H   -1.51499482  -0.86553635  -2.08144833
H   -2.28335978  -2.43453011  -2.05076591
H   -0.54074842  -2.31591991  -2.09874039
C   -1.39498301  -1.86008361  -0.18105248
N   -1.36391920  -1.85288249   0.96510403
C   -1.32096879   1.04893023   2.65139683
H   -2.14088093   1.46990159   2.10786452
H   -1.15757803   1.61435186   3.54498562
H   -1.54591107   0.03461549   2.90725942
C   -0.05231779   1.08911675   1.77932477
N    0.89225055   1.11903744   1.13002748
C    2.06675075  -2.28672122   2.02293040
H    2.47345942  -1.35586217   2.35906975
H    2.65301674  -3.09312707   2.41139003
H    1.05820219  -2.38057612   2.36777842
C    2.08916554  -2.33075998   0.48372340
N    2.10585436  -2.36354884  -0.66228617
