27
Energy:   -104.95541420
O    1.60298708   1.20796349  -1.70752234
H    1.36790075   0.28271371  -1.77737298
H    0.82405896   1.62647550  -1.34098375
C   -2.43397958  -0.83243015  -2.79306550
H   -3.12936667  -1.24226415  -3.49547069
H   -1.43561771  -1.00887989  -3.13517390
H   -2.59863417   0.22083317  -2.70128131
C   -2.63305759  -1.50453284  -1.42184490
N   -2.78128022  -2.00494384  -0.40090884
C   -2.07891906   0.76746491   1.82902350
H   -2.39107571   1.52623649   2.51584524
H   -1.40176047   0.09948865   2.31908781
H   -2.93370438   0.22182501   1.48767580
C   -1.37399587   1.42210228   0.62647071
N   -0.84914851   1.90950956  -0.26888451
C    3.04414025   2.02613853   1.04345032
H    2.48129158   2.75817736   0.50287590
H    3.61098444   1.43326372   0.35636502
H    3.70863058   2.51756741   1.72304531
C    2.08201862   1.11855452   1.83225527
N    1.36567534   0.44281697   2.41955640
C    0.77613787  -2.57094357   1.15498497
H    1.71115257  -2.31160424   1.60597367
H    0.70327518  -3.63521636   1.07183730
H   -0.02596335  -2.20480393   1.76118172
C    0.68970947  -1.93940734  -0.24690380
N    0.62535960  -1.46919991  -1.29067371
