27
Energy:   -104.71191189
O    1.55032426   2.72545184   1.16608055
H    0.64603213   2.48392374   1.36645958
H    1.95315071   1.91335699   0.85872953
C   -2.92254215  -1.41451215  -0.85475365
H   -2.70823635  -0.36649335  -0.87984926
H   -3.88531408  -1.57125566  -0.41498011
H   -2.91815557  -1.80342665  -1.85156124
C   -1.85162190  -2.13753747  -0.01692061
N   -1.05427309  -2.67586269   0.60688417
C    1.72355277  -2.22245668  -1.23177825
H    0.99811361  -2.03167543  -1.99482524
H    1.35624746  -2.98049817  -0.57196085
H    2.63619850  -2.55307937  -1.68196210
C    1.98276079  -0.93017418  -0.43527518
N    2.17575295   0.03198888   0.15775756
C   -0.01000243   2.65277472  -1.78104551
H   -0.19802017   3.31190898  -2.60268505
H    1.02105540   2.71571316  -1.50201578
H   -0.62223542   2.93493922  -0.95011047
C   -0.34219271   1.20742127  -2.19601905
N   -0.58952347   0.13128994  -2.50498571
C    0.15591583  -0.70774135   2.98794623
H    0.58964945  -1.45025322   2.35119552
H   -0.57987453  -1.16324340   3.61725499
H    0.91988793  -0.26701538   3.59375671
C   -0.50889815   0.38218912   2.12674130
N   -1.00388238   1.19369190   1.48553508
