27
Energy:   -106.17804283
O    1.88335551   0.41744263   0.47179620
H    1.30166919  -0.34085169   0.41829305
H    2.30137873   0.46039617  -0.38822905
C    0.73096400  -1.45902108  -3.38957748
H    0.28942387  -2.01257170  -2.58737788
H    1.27136976  -2.12612507  -4.02819551
H   -0.03772092  -0.97134245  -3.95188712
C    1.69500479  -0.40408175  -2.81570612
N    2.41277698   0.38136855  -2.38843281
C   -2.76103506  -1.26871157   0.29419882
H   -3.01195422  -0.68275985   1.15361743
H   -3.26047398  -2.21344325   0.34843808
H   -3.06872112  -0.75293361  -0.59135269
C   -1.23823973  -1.49467171   0.25374661
N   -0.10444938  -1.66290931   0.22362810
C   -0.29188433   2.69350232  -0.48759002
H    0.76533788   2.70111111  -0.65228213
H   -0.49296380   2.41597601   0.52603974
H   -0.68920578   3.66900371  -0.67582338
C   -0.95224516   1.67798720  -1.43851199
N   -1.44391382   0.92189003  -2.14651663
C    0.96006698  -0.20244997   3.70612931
H    1.04147616  -0.31185223   4.76740395
H    1.66584023   0.52705371   3.36759186
H    1.16311510  -1.14104041   3.23419865
C   -0.46512731   0.25593696   3.34515472
N   -1.52624924   0.59722686   3.07639274
