27
Energy:   -107.02613030
O   -1.32965158  -1.15981724  -1.81230334
H   -1.71206635  -0.56470741  -1.16745058
H   -0.40962673  -1.23044937  -1.55775033
C   -0.38527541   1.46187623   2.26054364
H    0.19308641   2.29591920   1.92176625
H    0.26972150   0.66125966   2.53420631
H   -0.96716591   1.75286388   3.11003096
C   -1.32290432   0.99496167   1.13163141
N   -2.02101167   0.64732255   0.29110495
C    3.28828912   0.48344870   0.48504809
H    2.86148326   1.40457449   0.82307799
H    4.06962751   0.68865541  -0.21659257
H    3.69025999  -0.05110885   1.32025270
C    2.19948783  -0.36826637  -0.19369573
N    1.38882577  -1.00240695  -0.69905135
C   -1.13021673  -3.28815157   1.03287584
H   -0.42913416  -3.56252573   0.27254549
H   -1.89764429  -2.67649644   0.60645815
H   -1.56814407  -4.17102191   1.44959960
C   -0.40444025  -2.50290932   2.14113714
N    0.13593333  -1.91826077   2.96628805
C   -0.88027097   2.10377217  -2.89273222
H   -0.67495016   1.14107998  -3.31221677
H   -0.77032163   2.85303241  -3.64865506
H   -1.88128839   2.12219897  -2.51520915
C    0.10669423   2.38443433  -1.74437320
N    0.84153469   2.59340006  -0.88936771
