27
Energy:   -106.07649749
O    0.69848015  -1.64103435  -0.59813965
H    0.94874327  -0.87608456  -0.08001607
H    0.85391220  -1.37780012  -1.50521212
C   -2.48139300  -0.71687585  -1.16223799
H   -1.95680091  -1.27871179  -1.90657910
H   -3.52805879  -0.72050592  -1.38444652
H   -2.31921439  -1.15904957  -0.20146768
C   -1.96341218   0.73337471  -1.15392005
N   -1.57775192   1.81315217  -1.14772696
C    0.65056917  -3.13911656   2.33564644
H    0.45122962  -3.95106586   3.00340557
H    1.61785907  -2.73316883   2.54649189
H    0.62455388  -3.49291765   1.32616782
C   -0.41726457  -2.04556675   2.52400758
N   -1.21231533  -1.23136921   2.66425100
C    1.61050462   2.40102305  -2.54378103
H    2.59696226   2.62798009  -2.89061242
H    1.56054939   2.55332709  -1.48585521
H    0.90516574   3.04202556  -3.03010595
C    1.27780136   0.93260353  -2.86728167
N    1.03008866  -0.16070155  -3.10814260
C   -0.35761275   2.29081674   2.15271853
H    0.17159077   3.10547421   2.60124616
H   -0.83053942   1.70919942   2.91623719
H   -1.10032516   2.67301106   1.48398475
C    0.63034309   1.40533745   1.37075327
N    1.36592113   0.74605786   0.78854459
