27
Energy:   -105.50538753
O   -0.48951448  -0.08823119  -2.61781729
H   -0.99939347   0.32409892  -1.92050880
H    0.30545572  -0.39715856  -2.18328523
C   -1.47198260  -3.06502341  -1.27558122
H   -0.43772152  -3.11311098  -1.54556602
H   -1.96216896  -2.32401338  -1.87183668
H   -1.92915096  -4.01772421  -1.44368048
C   -1.59706301  -2.69113612   0.21309711
N   -1.69019105  -2.41276004   1.32148580
C   -1.39887902   1.01230399   2.52407332
H   -0.48491874   1.46173112   2.85208556
H   -1.45137547   0.00641689   2.88509183
H   -2.22797926   1.57152785   2.90454745
C   -1.44545850   1.00832603   0.98478305
N   -1.48013904   1.00536426  -0.16128852
C    1.22682837   2.93249796  -1.47020121
H    2.12395481   3.15619828  -2.00873858
H    0.51521826   3.71720047  -1.62103920
H    0.81934730   2.00859773  -1.82413150
C    1.54629224   2.81087713   0.03138169
N    1.78414762   2.72032489   1.14937842
C    1.88069642  -0.97560528   1.78193003
H    2.81130180  -0.59800266   2.15110486
H    1.78605559  -2.00880626   2.04353650
H    1.07404184  -0.42248427   2.21582475
C    1.83851188  -0.82811426   0.24958971
N    1.80710357  -0.71830048  -0.89130731
