27
Energy:   -105.81934724
O    0.20910726   0.04817144  -2.53207934
H    0.58958108  -0.45445065  -1.81177207
H   -0.14555597   0.83364044  -2.11556488
C    3.07501267   1.92577764  -1.04796037
H    2.55472623   1.22645372  -1.66856351
H    4.12949579   1.77054929  -1.14213364
H    2.83258162   2.92237516  -1.35278764
C    2.65508751   1.72133830   0.41950937
N    2.34243414   1.56912392   1.51210728
C   -2.79521378  -1.57101243  -1.70389533
H   -2.88705024  -0.63049817  -2.20579091
H   -3.62727659  -2.19378917  -1.95829600
H   -1.88662404  -2.04897180  -2.00542246
C   -2.77317947  -1.34041231  -0.18141772
N   -2.75677393  -1.16872004   0.95213606
C   -0.90935977   1.43767725   1.93583273
H   -0.49410178   2.26953224   2.46543471
H   -0.34417949   0.55631424   2.15644454
H   -1.92590341   1.29431717   2.23747159
C   -0.85739494   1.71526366   0.42194850
N   -0.81870476   1.92193935  -0.70520712
C    0.49720227  -2.12623279   2.28060189
H   -0.55949638  -2.08753084   2.44427931
H    0.98797621  -1.46122445   2.96016347
H    0.84697610  -3.12430532   2.44310906
C    0.80829852  -1.70257047   0.83307663
N    1.03992382  -1.38713461  -0.24467172
