27
Energy:   -106.51689850
O    1.11796905  -0.59112260  -1.54933088
H    1.42612719  -0.27010437  -0.70185362
H    0.96721462  -1.52625188  -1.41135195
C    1.89776254   2.51112110  -2.20816453
H    1.73168023   1.87962966  -3.05582920
H    2.58861905   2.03879853  -1.54143537
H    2.30019468   3.44738471  -2.53429016
C    0.56327618   2.75226887  -1.47837421
N   -0.43030957   2.93181435  -0.93501215
C   -2.17633721  -0.50350406  -1.57229043
H   -1.65197422   0.38016079  -1.87075327
H   -3.15960017  -0.49442003  -1.99420338
H   -1.64732465  -1.36646427  -1.91919745
C   -2.27724712  -0.54637754  -0.03619829
N   -2.35237914  -0.57829880   1.10749212
C   -0.29934232   1.79123815   2.37366106
H    0.10521707   2.76106390   2.57532887
H   -0.57964996   1.32324945   3.29415728
H   -1.16039590   1.88747694   1.74578853
C    0.76110344   0.93045452   1.66224955
N    1.55065350   0.28956198   1.13257134
C   -0.15030992  -3.06067880   2.24312708
H   -0.65109031  -3.96178270   2.52971203
H   -0.75477131  -2.21772367   2.50571454
H    0.78934985  -2.99782835   2.75105269
C    0.08800481  -3.06744570   0.72169345
N    0.26544096  -3.07248397  -0.41108304
