27
Energy:   -106.40930838
O    1.72940184  -0.33203734  -0.85371770
H    1.44465205  -0.08749056   0.02681980
H    1.64135772  -1.28485865  -0.87844909
C   -1.65307648   1.61455860   1.85532801
H   -1.40506301   2.65340584   1.92002651
H   -2.22606170   1.33056238   2.71319349
H   -2.22676434   1.43933947   0.96928084
C   -0.35967612   0.78032046   1.80277102
N    0.60331925   0.15919225   1.76363995
C   -1.19915223  -0.63574567  -2.44987773
H   -0.54819922  -1.45892907  -2.65851488
H   -0.62321609   0.26216564  -2.36649945
H   -1.90867191  -0.53192549  -3.24404540
C   -1.94377882  -0.89272191  -1.12658848
N   -2.49818717  -1.08405239  -0.14133948
C    2.48752951   2.97687174  -0.79677189
H    2.84501259   3.97944678  -0.90608476
H    2.90043784   2.36456908  -1.57104010
H    2.78478847   2.59424321   0.15723629
C    0.95090835   2.96587026  -0.89813444
N   -0.19317596   2.95767916  -0.97360348
C   -0.67167060  -3.27025596   1.83600485
H   -0.59192556  -4.26759155   2.21529713
H   -1.69462702  -3.05689691   1.60592407
H   -0.32028960  -2.57908202   2.57337115
C    0.18012425  -3.13668937   0.55999329
N    0.81432424  -3.03724297  -0.39005531
