27
Energy:   -107.15059029
O   -0.08232880   1.38561038  -1.46402304
H    0.18959621   1.37997284  -0.54627751
H   -1.03893332   1.39187185  -1.43085018
C    3.11064622   1.51776484  -1.62620927
H    4.13042107   1.67616011  -1.90882273
H    2.85205523   2.18803706  -0.83326227
H    2.47508014   1.69875847  -2.46775317
C    2.92985020   0.06460499  -1.14951307
N    2.79523935  -1.01733856  -0.79459108
C   -0.87519836  -1.91353271  -1.97868804
H    0.15712895  -1.66382467  -2.10848165
H   -1.48459292  -1.12467849  -2.36759211
H   -1.09093555  -2.82177482  -2.50161523
C   -1.17340565  -2.10109667  -0.47952421
N   -1.39543452  -2.24074657   0.63667140
C   -3.04907066   0.65004455   1.96548878
H   -2.61241298   1.46046375   2.51087944
H   -2.54983897  -0.26138347   2.22037264
H   -4.08652650   0.57025711   2.21492502
C   -2.90289060   0.91025647   0.45468729
N   -2.79405291   1.10399608  -0.67017310
C    1.25586591  -1.15681975   2.50800079
H    1.79105223  -0.94062788   3.40896520
H    1.88543235  -1.71070458   1.84335292
H    0.38588787  -1.73496183   2.73992540
C    0.83160995   0.16130043   1.83408235
N    0.51573209   1.14270082   1.33231945
