27
Energy:   -106.92674997
O   -0.59596203   1.09661863  -1.51859059
H   -0.18536122   1.19839400  -0.65994014
H    0.12892486   0.88868656  -2.10811167
C    3.62598383  -0.00457828  -0.56440521
H    3.16828185   0.43521736   0.29698256
H    4.53883868   0.50847179  -0.78434779
H    3.83438574  -1.03594912  -0.37013240
C    2.67095926   0.10843943  -1.76721653
N    1.95990006   0.19258625  -2.66276424
C   -0.83045483  -2.33246002  -1.44260086
H   -1.24737641  -3.31724586  -1.47828616
H   -0.51076917  -2.04476965  -2.42236328
H   -1.57107052  -1.64406359  -1.09260392
C    0.37542728  -2.31993989  -0.48484746
N    1.27326133  -2.31061808   0.22824348
C    0.37299365  -0.48226304   3.05123631
H    0.79225432  -1.41644983   2.74072752
H   -0.66032526  -0.61803568   3.29355204
H    0.89736041  -0.12474517   3.91269993
C    0.50208256   0.54312207   1.90951768
N    0.59819512   1.30656789   1.05945626
C   -3.18107137   2.18804322   0.17092290
H   -3.19683023   2.08627767  -0.89411025
H   -2.37465013   2.83098909   0.45588691
H   -4.10715439   2.60895692   0.50273759
C   -2.98616652   0.80334456   0.81607538
N   -2.84105100  -0.22762653   1.29642073
