27
Energy:   -110.63623256
O   -0.10060267  -0.30869065  -2.65489321
H   -0.69739279   0.15586332  -2.06815391
H    0.49741741  -0.77382525  -2.06986874
C    2.20163790   2.02019112  -1.86553839
H    1.26321458   2.01425777  -2.37956821
H    2.71622388   1.10075699  -2.05192840
H    2.79518337   2.83853290  -2.21613729
C    1.95738459   2.17422840  -0.35285441
N    1.77552691   2.28891615   0.77340758
C   -2.22944382  -2.33970530  -0.75945299
H   -1.34131942  -2.46853625  -1.34215174
H   -2.71391840  -1.42916710  -1.04424005
H   -2.89039113  -3.16375739  -0.92970542
C   -1.85912710  -2.27876025   0.73411697
N   -1.58340947  -2.23338388   1.84614769
C   -1.42205599   1.62633800   2.08668440
H   -0.40454822   1.73731220   2.39855432
H   -1.88028659   0.83348606   2.64013684
H   -1.95153602   2.53873283   2.26580914
C   -1.46494168   1.29456514   0.58345868
N   -1.49687203   1.04754516  -0.53576120
C    1.47901929  -0.99464199   2.09628547
H    2.47955622  -0.88711501   2.45996662
H    1.02195245  -1.84587781   2.55605342
H    0.91670707  -0.11592655   2.33411575
C    1.50613792  -1.18895090   0.56883379
N    1.52632897  -1.33362272  -0.56842341
