27
Energy:   -103.95422908
O    1.82687531  -1.17986794   1.64772502
H    1.32778102  -1.88669036   1.23840999
H    1.32449650  -0.38831271   1.45462478
C   -1.26668375   2.85010866  -0.43846765
H   -0.73155578   3.23626304  -1.28074020
H   -1.50077655   3.64995627   0.23260869
H   -2.17220444   2.38817709  -0.77245955
C   -0.39667490   1.80798670   0.28862685
N    0.25108623   1.03207953   0.82998176
C   -1.03370418  -1.23597614  -2.16838773
H   -1.04400943  -1.87477132  -3.02672025
H   -0.41216106  -0.38703735  -2.36303145
H   -2.02972288  -0.90763365  -1.95616840
C   -0.47990643  -2.01099497  -0.95832416
N   -0.06757883  -2.58803172  -0.05737682
C    3.46561190   0.62639371  -0.91494792
H    2.97386007  -0.29387977  -0.67793096
H    3.70461148   1.14624989  -0.01077545
H    4.36517916   0.42088629  -1.45665314
C    2.53468015   1.49847391  -1.77775856
N    1.84155915   2.14777726  -2.42016030
C   -2.16021622  -1.40821045   2.57862977
H   -2.50608501  -0.96760337   3.49029876
H   -1.09215474  -1.35653438   2.54024540
H   -2.46949415  -2.43170506   2.53733764
C   -2.75450583  -0.64366168   1.38118038
N   -3.19698147  -0.07442037   0.48962489
