27
Energy:   -106.36935166
O   -0.70736498   0.29739777   1.73383631
H   -0.63350242  -0.43050270   1.11663530
H    0.15697204   0.35544848   2.14100149
C   -3.80880597   0.52848571   0.78189988
H   -4.86461579   0.70158606   0.76768473
H   -3.32908530   1.29659887   1.35178525
H   -3.60943996  -0.42359234   1.22765731
C   -3.26660529   0.54412254  -0.65940991
N   -2.86291223   0.55576487  -1.73253056
C    0.84329422   2.67708367  -0.02700247
H    1.20885405   2.76428447   0.97482696
H   -0.19406506   2.41560551  -0.00665584
H    0.96573894   3.61138490  -0.53394190
C    1.63395576   1.58321546  -0.76855940
N    2.22263922   0.76878086  -1.32068224
C    3.17439889  -1.88941071   0.92986538
H    4.02497880  -2.28440928   1.44502568
H    3.47426342  -1.53467916  -0.03405676
H    2.43891681  -2.65790276   0.81417106
C    2.57716225  -0.72540016   1.74226173
N    2.13249242   0.14125861   2.34712773
C   -0.14710670  -1.32592594  -2.85068936
H    0.62653544  -0.61719248  -3.06062962
H   -1.08797170  -0.93374838  -3.17606440
H    0.05651000  -2.23999114  -3.36830325
C   -0.19948672  -1.59484470  -1.33525575
N   -0.23848603  -1.79506695  -0.20694654
