27
Energy:   -106.61919190
O    0.99572039  -0.12537147  -1.96782541
H    0.39613427  -0.56914813  -1.36799993
H    0.53131046   0.67081892  -2.22596514
C   -1.27213944  -1.16373800   2.58252772
H   -1.96388608  -1.93169570   2.85934488
H   -1.68063561  -0.20766983   2.83543804
H   -0.35061312  -1.30786970   3.10685051
C   -1.01492083  -1.22703467   1.06548055
N   -0.82340988  -1.27416192  -0.06403003
C    3.00969001  -2.47236433  -0.61769997
H    3.81016818  -3.16356590  -0.45529532
H    3.34886284  -1.67490624  -1.24533160
H    2.19356485  -2.97670647  -1.09149088
C    2.54405381  -1.89941761   0.73378624
N    2.19736649  -1.47283272   1.74002915
C    1.20029099   2.36251808   0.62254786
H    1.80601116   2.78885039   1.39471625
H    1.24661475   2.98088904  -0.24944444
H    1.56162077   1.38371922   0.38528706
C   -0.25821218   2.26766482   1.10769870
N   -1.34413409   2.19704225   1.46891556
C   -3.27774731   0.94958378  -1.25298463
H   -3.14318406  -0.09252851  -1.05100719
H   -4.06787753   1.07609434  -1.96332850
H   -3.52842397   1.45918733  -0.34614146
C   -1.97343163   1.53391870  -1.82649426
N   -1.00230932   1.96898260  -2.25349825
