27
Energy:   -106.84822500
O   -0.25608996   1.92126838   0.59668206
H    0.34506927   2.24002207  -0.07654562
H    0.13926950   1.10581742   0.90484191
C    3.42331119   0.21230821  -1.23848195
H    4.42444647   0.54318718  -1.42054634
H    3.15645128  -0.53092922  -1.96048125
H    3.35904761  -0.20586330  -0.25567887
C    2.45899335   1.40765265  -1.35180798
N    1.74101489   2.29764091  -1.43618436
C   -2.17346402   0.77513773   2.97321791
H   -1.12978978   1.00662005   2.92782835
H   -2.42704859   0.46431550   3.96517733
H   -2.74293947   1.64341729   2.71497887
C   -2.49098412  -0.36034763   1.98253430
N   -2.72739226  -1.20576808   1.24492533
C    0.32421497  -3.04580487   0.36736630
H    0.60767108  -3.13002005  -0.66096274
H   -0.72952972  -3.20619180   0.46115999
H    0.84924261  -3.77901455   0.94325572
C    0.67720799  -1.63848433   0.88354925
N    0.94002735  -0.59067023   1.26787092
C   -1.67325712   0.70858150  -2.18561763
H   -1.35916566   1.67656365  -2.51615855
H   -1.98112824   0.76364280  -1.16234703
H   -2.49278410   0.37482549  -2.78718353
C   -0.50270143  -0.28347891  -2.31682555
N    0.36883049  -1.02211298  -2.41451582
