27
Energy:   -106.21606311
O   -0.32492268   1.59402020  -1.43976292
H   -0.33636521   1.00626065  -2.19516984
H   -0.70589278   1.07857286  -0.72884262
C   -1.80070162  -2.71777740  -1.80102860
H   -1.19037526  -3.10292558  -1.01105215
H   -2.03683422  -3.50541238  -2.48569759
H   -2.70482883  -2.31861780  -1.39099849
C   -1.03799223  -1.60433577  -2.54273079
N   -0.47012042  -0.77532787  -3.09496178
C    2.58099024   0.01177745  -1.06694148
H    2.31986468   0.79549577  -0.38686853
H    2.21926928   0.25274578  -2.04468956
H    3.64525286  -0.09482101  -1.09662183
C    1.94567988  -1.30958559  -0.59579347
N    1.47266244  -2.29340044  -0.24500235
C   -0.29953369  -1.53134791   2.68536961
H   -1.07987842  -1.81077017   3.36204197
H    0.43216649  -0.94919811   3.20557684
H    0.16126716  -2.41200369   2.28912843
C   -0.89273170  -0.69956178   1.53304676
N   -1.33439459  -0.08025920   0.67509001
C   -0.35990434   3.49405541   1.38576985
H   -0.10424562   3.52753212   0.34730074
H   -0.28004134   4.47544818   1.80456480
H   -1.36387808   3.14040292   1.49469979
C    0.60216860   2.54239550   2.12086107
N    1.31847563   1.83384145   2.66816989
