27
Energy:   -106.44570984
O    0.93606159  -0.48945081  -1.66962628
H    0.84757795  -1.43486604  -1.54882666
H    1.29424744  -0.17398052  -0.83991956
C    1.49964274   2.55166498  -2.49327730
H    2.37113668   2.21420280  -1.97220363
H    1.72597740   3.45594762  -3.01858161
H    1.18862293   1.80227104  -3.19082621
C    0.36722421   2.81443478  -1.48323754
N   -0.47591286   3.01007884  -0.73121703
C   -2.37774776  -0.57673473  -1.30924601
H   -2.04130385  -1.51939944  -1.68751697
H   -1.77500066   0.20722343  -1.71790800
H   -3.39915571  -0.42412508  -1.58913024
C   -2.25941661  -0.56795975   0.22617600
N   -2.17131370  -0.56142637   1.36936748
C   -0.02635623   1.70014471   2.56890640
H    0.54784419   2.20247566   3.31914481
H   -0.72105775   1.03474245   3.03744534
H   -0.56064552   2.42126556   1.98630982
C    0.91605411   0.89696909   1.65328002
N    1.61772145   0.29896833   0.97155456
C    0.26268949  -3.04841079   2.13724554
H    0.93370136  -2.28991213   2.48267723
H    0.59242828  -4.00355082   2.48920994
H   -0.72079947  -2.85112859   2.50970802
C    0.23784551  -3.04933309   0.59744623
N    0.21934804  -3.05001978  -0.54900435
