27
Energy:   -104.15882252
O   -1.80600428  -2.47748658   1.47146838
H   -1.17619185  -2.51054261   0.75141598
H   -2.09012452  -3.38464034   1.58362716
C    1.37855193   3.20655802  -0.81973328
H    2.27048119   2.64926520  -0.62278891
H    1.60764587   4.25158629  -0.83792611
H    0.97641119   2.91303892  -1.76684915
C    0.34389672   2.92703117   0.28613893
N   -0.42645111   2.71891073   1.10951106
C    1.78437059  -1.23690901  -2.30372931
H    1.46942100  -1.38383746  -3.31571694
H    2.76350603  -1.64771362  -2.17169734
H    1.80445661  -0.18971641  -2.08490681
C    0.79952884  -1.94136613  -1.35219008
N    0.06626939  -2.46586648  -0.64372587
C   -2.62927357   0.31859797  -0.27095530
H   -2.96019946  -0.69465731  -0.36423969
H   -3.47048042   0.97629226  -0.33957278
H   -2.14913591   0.45124537   0.67602495
C   -1.63331617   0.63942748  -1.40088330
N   -0.89178061   0.87829963  -2.24216605
C    0.58915644  -0.33765375   2.57422663
H    0.48513572  -1.39716346   2.68155345
H   -0.34616991   0.08353810   2.26982370
H    0.88438268   0.08838317   3.51029987
C    1.66013606  -0.03212734   1.51062133
N    2.45752907   0.19535096   0.71871883
