61
Energy:   -590.71991428
C    0.89006567   2.23902717   3.58934589
H    1.07668496   2.88886064   2.76001491
H    1.62155619   2.41318954   4.35058710
H   -0.08627265   2.43301094   3.98181612
C    0.97387133   0.77389490   3.12247970
N    1.03626846  -0.31696267   2.77487660
C   -2.27266488  -3.98983607  -1.06820206
H   -2.70492876  -4.87631707  -0.65323270
H   -1.70277558  -4.24409172  -1.93738521
H   -3.05050311  -3.30677803  -1.33893901
C   -1.35123537  -3.33111985  -0.02481306
N   -0.66518922  -2.84067569   0.75203748
C   -2.13436131  -1.76770531   3.77794523
H   -1.09564746  -2.01956951   3.72756515
H   -2.67513540  -2.33732853   3.05131474
H   -2.50822942  -1.98989166   4.75557243
C   -2.31293205  -0.26559261   3.48920673
N   -2.44588608   0.85279857   3.27422779
C   -2.76846972   4.20866029   2.63384808
H   -3.26475890   5.11957118   2.37147701
H   -2.30347056   4.31879664   3.59121158
H   -3.48204120   3.41232552   2.67341769
C   -1.69642405   3.88524175   1.57662599
N   -0.89823733   3.64444195   0.78947609
C    2.41377558   3.23148742  -0.78428460
H    1.43855948   3.62079827  -0.57863736
H    2.60228739   3.27922211  -1.83646509
H    3.14661198   3.81208357  -0.26394047
C    2.49130522   1.76684149  -0.31481527
N    2.54902957   0.67634602   0.03472599
C   -1.35204117   2.65033846  -2.86279370
H   -2.18354813   1.98060946  -2.93321687
H   -1.45415523   3.42393750  -3.59492507
H   -1.32618092   3.08530469  -1.88553492
C   -0.04554191   1.87481566  -3.11423764
N    0.92720618   1.29740368  -3.30144909
C   -3.29459844   0.90489294  -0.11226432
H   -3.78379229   0.63575099   0.80050737
H   -3.74460537   0.37726238  -0.92712556
H   -3.39229958   1.95836604  -0.27210180
C   -1.80223215   0.53543535  -0.02313554
N   -0.69109762   0.26035737   0.04322489
C    3.44679217  -1.06259145  -3.31284095
H    3.04897072  -0.39558596  -4.04887217
H    3.92114507  -1.88898927  -3.79962126
H    4.16361897  -0.54357784  -2.71143985
C    2.30494729  -1.58017820  -2.41847289
N    1.45479188  -1.96554505  -1.75257521
C    4.83146918  -3.97280752   2.56734004
H    4.84911834  -4.99622359   2.25555769
H    4.61166964  -3.92234740   3.61330420
H    5.78620539  -3.52685275   2.38159237
C    3.74830621  -3.21431841   1.77800344
N    2.94184215  -2.64958880   1.19030646
C   -0.47785291  -1.68383825  -4.77439975
H   -1.01042753  -1.89545330  -5.67799453
H    0.07561435  -2.54943520  -4.47554359
H    0.19593448  -0.86927932  -4.93993950
C   -1.47767461  -1.30581348  -3.66577274
N   -2.22208731  -1.02435686  -2.84034954
Na   1.12965037  -1.22842107   0.53771253
