61
Energy:   -590.41961479
C    0.72837557  -2.24088182  -5.27461842
H    1.44682445  -3.02345412  -5.14690012
H    0.78117902  -1.86820471  -6.27622845
H   -0.25313700  -2.62381838  -5.08782506
C    1.03099365  -1.09979473  -4.28570864
N    1.25630658  -0.25020353  -3.54942035
C   -1.16955187  -3.41619588   5.56136987
H   -2.09581774  -3.95177602   5.57062383
H   -1.16038292  -2.70566874   6.36134874
H   -0.35890408  -4.10347488   5.68545383
C   -1.01634443  -2.67881950   4.21808898
N   -0.90227453  -2.12980926   3.21795530
C   -2.22155381  -0.47926082  -2.62328360
H   -1.45385515   0.18006787  -2.97088196
H   -3.17129816   0.00766868  -2.69933902
H   -2.22693532  -1.36684500  -3.22083231
C   -1.95179829  -0.85155870  -1.15351279
N   -1.75095304  -1.12875140  -0.05920161
C    0.00818717   3.34065780  -2.65128654
H    0.75930528   3.85110385  -2.08545388
H   -0.36882879   3.99144331  -3.41236228
H    0.43360423   2.47001972  -3.10505822
C   -1.14252490   2.92241970  -1.71718878
N   -1.99928233   2.61102242  -1.02171053
C   -4.11623656   1.60629262   1.52929293
H   -4.70305427   1.90339423   2.37325726
H   -4.53174331   0.71822402   1.10082192
H   -4.11866159   2.38910348   0.79984083
C   -2.67014581   1.33018035   1.98115969
N   -1.59346552   1.12460222   2.31759502
C    3.07645046   2.62732584   3.51849784
H    3.35765475   3.11284979   2.60740464
H    3.95596960   2.35289056   4.06258465
H    2.48465033   3.29418092   4.11008552
C    2.25762475   1.36374087   3.19526808
N    1.64797178   0.42294442   2.95460883
C   -0.99938738   4.57610719   1.87532771
H   -1.02791621   5.62007602   2.10816967
H   -1.13766091   4.00703722   2.77083811
H   -1.77989701   4.34403765   1.18117533
C    0.36403618   4.22661389   1.25040321
N    1.37916699   3.96640024   0.78511851
C    3.19868180   1.73233129  -1.30026679
H    3.24401530   2.78149987  -1.09510750
H    3.16465119   1.57696074  -2.35837879
H    4.06574227   1.25225809  -0.89698653
C    1.93449294   1.13687573  -0.65307346
N    0.99324687   0.69353200  -0.17120861
C   -1.35385576  -4.68768776  -0.11262651
H   -2.17713846  -4.10360999   0.24228042
H   -0.56586324  -4.67008549   0.61101500
H   -1.67324434  -5.69707082  -0.26766157
C   -0.84338259  -4.10089915  -1.44179777
N   -0.46331210  -3.66400835  -2.43142620
C    2.88054691  -2.76227284  -1.50852705
H    3.79253972  -3.23905980  -1.21553645
H    3.10161893  -1.82253820  -1.96996508
H    2.35879208  -3.38677666  -2.20326870
C    2.00071591  -2.52975234  -0.26617781
N    1.34564174  -2.35663027   0.65880767
Na  -0.05057902  -0.59495347   1.58442801
