61
Energy:   -592.91522943
C    4.07068344  -1.64010119  -3.47828027
H    3.67353684  -0.77224416  -3.96201464
H    4.04199533  -2.46946250  -4.15373263
H    5.08276145  -1.45346520  -3.18542501
C    3.22692982  -1.96412312  -2.23140834
N    2.59871690  -2.20537218  -1.30305551
C   -1.91018574  -0.59314273   6.84399810
H   -2.83641862  -0.08327247   7.00839138
H   -1.14013706  -0.13006703   7.42493270
H   -2.01021484  -1.61758133   7.13626309
C   -1.54142948  -0.51903168   5.35063733
N   -1.26687368  -0.46385264   4.23876236
C   -4.60933277  -2.50224687   0.28960687
H   -4.06308298  -3.13072595   0.96156326
H   -5.44296310  -3.04338661  -0.10678604
H   -4.96158080  -1.63930970   0.81511601
C   -3.68874412  -2.06085376  -0.86334095
N   -3.00332403  -1.73221653  -1.72176301
C    1.02883825   4.07754040  -3.71971320
H    1.49369860   3.23154849  -4.18134372
H    1.78216628   4.75743727  -3.38039591
H    0.39805049   4.56971982  -4.43018157
C    0.18341897   3.60822180  -2.52112808
N   -0.44603411   3.25879277  -1.62872697
C   -3.53499846   1.87055828  -1.04340349
H   -3.15366101   1.35111099  -1.89760279
H   -3.14640377   2.86740104  -1.02934052
H   -4.60323258   1.90486049  -1.09437723
C   -3.10566586   1.13409483   0.23913115
N   -2.78600822   0.58576431   1.19403648
C   -0.58312872   4.68614350   1.43832036
H    0.30440402   5.12120476   1.02855516
H   -0.89245945   5.24716744   2.29533012
H   -1.36006950   4.70113554   0.70276794
C   -0.29709295   3.23094549   1.85326889
N   -0.08412631   2.14748442   2.16221694
C    3.12115775   1.50885218   0.21872204
H    3.72925814   2.34360609   0.49854344
H    3.58569005   0.60291190   0.54793479
H    2.15723996   1.60126958   0.67393695
C    2.96468927   1.47829534  -1.31300375
N    2.84819137   1.45554438  -2.45344322
C   -0.15841698  -0.27021813  -3.05094146
H    0.29692592  -1.19456526  -3.33929089
H    0.35729144   0.54249301  -3.51832196
H   -1.18328017  -0.26629171  -3.35841361
C   -0.08096799  -0.11519656  -1.52072254
N   -0.02330370   0.00022404  -0.38140499
C   -0.31084285  -4.02749454  -0.75695531
H   -0.81845464  -4.96843286  -0.71376354
H    0.74636571  -4.19138428  -0.73826535
H   -0.57713719  -3.51971581  -1.66036396
C   -0.71858729  -3.16818828   0.45421653
N   -1.02217155  -2.52839571   1.35598901
C    3.38206265  -2.96704237   1.93300671
H    3.01879652  -3.59878893   1.14953100
H    3.47024259  -3.53384182   2.83625738
H    4.34087211  -2.57742174   1.66138328
C    2.39801052  -1.80279245   2.15155538
N    1.66533897  -0.93595547   2.31427481
Na  -0.60700286  -0.19814660   1.95866098
