61
Energy:   -590.07991162
C    2.63576927  -1.96715014  -2.53966388
H    2.82958113  -2.99108256  -2.78235615
H    3.03190058  -1.33721760  -3.30853583
H    1.57986667  -1.81294769  -2.46098484
C    3.30640371  -1.62202049  -1.19700422
N    3.80572154  -1.36505578  -0.19733307
C   -3.39491512  -4.18338121   3.87014698
H   -2.84433406  -4.49697683   4.73236416
H   -3.53614743  -5.01708604   3.21448794
H   -4.34780834  -3.80334749   4.17423248
C   -2.61261604  -3.07908871   3.13520058
N   -2.03015881  -2.25689275   2.58799958
C   -4.54212827   1.06586240   0.19120470
H   -5.20997844   0.32902033   0.58609720
H   -4.40887271   0.90094651  -0.85757783
H   -4.95300951   2.04105816   0.34953644
C   -3.18134740   0.96016670   0.90443946
N   -2.16818418   0.88147144   1.43547516
C   -0.42530717   2.28934903  -5.46799205
H   -1.43254748   2.30150910  -5.10713300
H   -0.40399017   1.86941253  -6.45191177
H   -0.04531058   3.28913155  -5.49859592
C    0.44677593   1.43730130  -4.52720210
N    1.09608144   0.80291303  -3.82674122
C   -0.96073166   3.71526637  -0.83517666
H   -1.49890619   4.63982842  -0.85646889
H    0.03440913   3.87346130  -1.19513256
H   -0.92258198   3.34782630   0.16903023
C   -1.67332978   2.68574290  -1.73177320
N   -2.20389147   1.91921588  -2.39933007
C   -0.63064069   2.63552730   4.00262020
H   -0.42054176   3.28263894   4.82845622
H   -0.53814778   1.61647773   4.31548139
H   -1.62693758   2.81287483   3.65500049
C    0.36777777   2.91559250   2.86405792
N    1.11114569   3.12411376   2.01634655
C    3.58874786   0.51280280   2.80165384
H    3.58259110   1.51320317   2.42209968
H    4.21902522  -0.09727570   2.18891103
H    3.96023629   0.51431530   3.80509450
C    2.15581254  -0.05114679   2.78561525
N    1.08892706  -0.47103290   2.77367378
C    2.71702531   2.07481689  -0.93857907
H    2.64914720   2.98257005  -0.37619401
H    2.68416646   2.29971772  -1.98415978
H    3.63795930   1.58088769  -0.70876694
C    1.53655260   1.15552905  -0.57389559
N    0.65763702   0.47107746  -0.30237215
C   -1.75764446  -1.35850545  -3.54213786
H   -2.20250170  -0.44175455  -3.86858847
H   -2.28579075  -2.18402600  -3.97164503
H   -0.73433352  -1.38902169  -3.85326896
C   -1.83004967  -1.44588853  -2.00632482
N   -1.88395864  -1.51094921  -0.86284220
C    2.85088820  -4.24785603   1.74781406
H    2.89507222  -5.23747104   1.34332662
H    2.76193509  -4.30146666   2.81276116
H    3.74380775  -3.71727955   1.49074914
C    1.63018338  -3.51002312   1.16722613
N    0.72131315  -2.96067299   0.73495203
Na  -0.61981727  -0.98501093   1.12363326
