61
Energy:   -590.44972653
C    1.49973606  -2.16683493  -3.35180021
H    1.52321378  -3.08855078  -2.80885559
H    1.97182865  -2.30085355  -4.30262442
H    0.48373427  -1.86449164  -3.49749854
C    2.24876965  -1.08251286  -2.55506039
N    2.80645921  -0.27518580  -1.96185139
C    0.82491336  -4.21154934   3.23392458
H    0.70212666  -4.70529478   2.29262811
H    0.21630856  -4.69242444   3.97098525
H    1.85151333  -4.26115620   3.53146578
C    0.40003310  -2.73742489   3.09963432
N    0.08369043  -1.63987223   2.99964912
C   -4.24784562  -0.13504733  -0.25300715
H   -3.88179263  -0.91000417  -0.89359070
H   -4.54677730   0.70506357  -0.84440601
H   -5.08791822  -0.49782567   0.30158188
C   -3.13537158   0.29330993   0.72193468
N   -2.30708409   0.61224137   1.44782320
C    0.35597457   2.07364018  -2.74831029
H    0.20196541   1.08009287  -3.11443201
H    1.29598965   2.44245449  -3.10221245
H   -0.43090805   2.70867397  -3.09823448
C    0.35723634   2.05881470  -1.20838217
N    0.35817579   2.04777645  -0.06183569
C   -2.38773124   4.22715541   0.78816000
H   -3.30132383   4.46399710   1.29229766
H   -1.85381324   5.12954084   0.57477961
H   -1.78878652   3.59746496   1.41238291
C   -2.70331689   3.49380220  -0.52872981
N   -2.93828476   2.94778741  -1.50921413
C    0.07907970   2.91247873   5.96185412
H    0.35142192   3.94715255   5.94843859
H    0.77849022   2.36730155   6.56060771
H   -0.90229402   2.80730432   6.37506480
C    0.09292674   2.35934101   4.52468784
N    0.10323649   1.94750483   3.45465222
C    4.27961981   1.84028020   0.35593678
H    4.59465243   1.35108029  -0.54202652
H    5.12912934   2.01952406   0.98132009
H    3.81469233   2.77212705   0.11016662
C    3.27269589   0.94522072   1.10197482
N    2.52299527   0.27880826   1.65743405
C   -1.31337764  -3.46191878  -1.11906773
H   -1.71061780  -3.28172611  -2.09611994
H   -2.09862052  -3.78759365  -0.46927654
H   -0.55935966  -4.21906122  -1.17466722
C   -0.69670714  -2.16281174  -0.56803380
N   -0.23756792  -1.19556750  -0.15776399
C   -3.57691595   1.23580253  -4.36107856
H   -4.07669988   0.77642470  -5.18817482
H   -2.95790440   2.03294394  -4.71645072
H   -4.30228648   1.62505450  -3.67754393
C   -2.70452174   0.18944176  -3.64298562
N   -2.05498459  -0.58962139  -3.10833279
C    4.37146944  -2.48214252   0.47629155
H    4.34388239  -2.03717223   1.44898912
H    4.51792917  -1.72015870  -0.26047796
H    5.17726491  -3.18447372   0.42808736
C    3.04063617  -3.20842359   0.20610900
N    2.04977031  -3.74917286   0.00494581
Na   0.10125036   0.35926615   1.65823797
