61
Energy:   -589.49610202
C    3.15456669  -0.55788561  -3.73474987
H    3.61948171   0.39734405  -3.60711566
H    2.45027065  -0.50720443  -4.53867623
H    3.90103499  -1.29059397  -3.96018862
C    2.42473878  -0.95109368  -2.43692914
N    1.88134873  -1.24385495  -1.47064261
C    1.87060830   3.86087561  -0.11110430
H    2.43668834   3.91834269  -1.01727818
H    2.32970482   4.47434759   0.63574348
H    0.87334328   4.20430163  -0.29116025
C    1.83043647   2.40094559   0.37735301
N    1.80052672   1.31396132   0.74103168
C    5.34907574  -3.07265072   2.22783487
H    6.12865119  -2.42249610   1.88951361
H    5.47175745  -4.03812393   1.78318921
H    5.39629762  -3.16195331   3.29305514
C    3.98253325  -2.49029764   1.82160030
N    2.96508026  -2.05670929   1.51914020
C   -4.40018889   1.22976767   0.93253741
H   -4.35613619   0.79945870  -0.04613196
H   -3.96813483   2.20843575   0.91162905
H   -5.42073217   1.29707428   1.24695801
C   -3.61660587   0.34366766   1.91865324
N   -3.03319270  -0.31607407   2.65286130
C   -1.13920000  -2.73124854  -2.74074493
H   -1.58499025  -3.46654328  -3.37754385
H   -1.82014236  -2.48036369  -1.95444131
H   -0.23719112  -3.12370944  -2.31973007
C   -0.81576523  -1.46920783  -3.56186806
N   -0.57495334  -0.52956116  -4.17323156
C   -2.86347023  -3.64588314   1.74332298
H   -2.87664765  -4.70412793   1.90094436
H   -3.62461220  -3.38058786   1.03963241
H   -3.04518342  -3.14480032   2.67111359
C   -1.48749552  -3.22581254   1.19392849
N   -0.46301981  -2.91305088   0.78487933
C   -0.96254820  -1.69080670   5.19886997
H   -2.00663545  -1.48999369   5.07863626
H   -0.60730464  -1.21219184   6.08748064
H   -0.80912851  -2.74687342   5.27687355
C   -0.19193654  -1.14872732   3.98071251
N    0.38181888  -0.74512458   3.07373890
C   -1.65228640   2.10992366  -1.92799122
H   -1.66498107   1.80510400  -2.95357593
H   -0.93710033   2.89512244  -1.79810330
H   -2.62326289   2.46205832  -1.64851865
C   -1.26586787   0.91172404  -1.04108741
N   -0.97816171   0.01960995  -0.38074721
C   -0.69547259   2.46823023   3.73084795
H   -0.73003481   3.31530425   4.38366586
H    0.29961851   2.07555822   3.70845377
H   -1.36786088   1.71587809   4.08688073
C   -1.11018037   2.89705642   2.31108545
N   -1.41894916   3.21633702   1.25400774
C    0.63078732   2.43873171  -5.68017001
H    0.07762939   1.54576061  -5.88393237
H    1.46370830   2.50271601  -6.34878630
H   -0.00288430   3.28993608  -5.81732136
C    1.14015200   2.40675497  -4.22719888
N    1.51939717   2.38294684  -3.14539583
Na   0.97300095  -0.94972355   0.73819009
