61
Energy:   -589.05951672
C   -3.67072479  -0.60260440  -2.94630605
H   -3.79404920  -0.53535388  -1.88556638
H   -4.26162770  -1.41095386  -3.32353807
H   -3.98706958   0.31290687  -3.40090937
C   -2.18746870  -0.85362823  -3.27575774
N   -1.08311712  -1.04052688  -3.52104950
C    0.99135237   2.42565997   0.65673826
H    1.74676572   2.24741636  -0.07979421
H    1.02512872   3.45080078   0.96144233
H    0.02960098   2.20864418   0.24100095
C    1.23971265   1.51909999   1.87660144
N    1.42462817   0.84412488   2.78484502
C    3.86769425  -1.77248619  -6.32918553
H    3.23148445  -1.84142533  -7.18673125
H    4.33483583  -2.71916718  -6.15462054
H    4.61903271  -1.03033427  -6.50123241
C    3.02965888  -1.37889569  -5.09858273
N    2.40570345  -1.08584968  -4.18234302
C    3.83453155  -1.59377718   1.52984637
H    4.89959130  -1.60638426   1.42792014
H    3.47403471  -2.59611918   1.63109676
H    3.56597133  -1.02876072   2.39790795
C    3.20701246  -0.94620939   0.28145711
N    2.73979598  -0.46406573  -0.64802545
C    1.03240386  -1.88791256   4.85841475
H    1.45770510  -2.65050977   5.47685192
H    0.08993455  -1.58424015   5.26391909
H    1.69327599  -1.04711725   4.82362429
C    0.82557708  -2.43752159   3.43477414
N    0.67158513  -2.84673049   2.37480899
C   -0.42390406   2.82003064   5.29175115
H   -0.19218739   3.84458457   5.49545881
H    0.48317094   2.25777726   5.21438724
H   -1.02184895   2.42481673   6.08621132
C   -1.20232049   2.72347586   3.96647946
N   -1.78188691   2.65158643   2.97975446
C    0.44207392  -5.15815317  -0.03741224
H    0.22007920  -6.03475863  -0.60940997
H   -0.42139127  -4.87165893   0.52583549
H    1.25179310  -5.36404603   0.63106518
C    0.83893513  -4.01250030  -0.98692827
N    1.13441634  -3.15950966  -1.69388610
C   -1.07648641   3.28792604  -3.70043382
H   -2.07421279   2.95846154  -3.49820773
H   -0.92742251   3.34545400  -4.75843646
H   -0.92486335   4.25386415  -3.26583848
C   -0.07326893   2.28908082  -3.09424664
N    0.67367209   1.54539514  -2.64291273
C   -1.99948469  -0.55655400   1.85959846
H   -2.42594058  -1.51655809   2.06313639
H   -2.78246750   0.15955475   1.72166628
H   -1.38396723  -0.25801060   2.68234337
C   -1.14468058  -0.63520647   0.58103532
N   -0.50824006  -0.69376682  -0.37091306
C   -3.92441433   3.75899329   0.70740513
H   -4.34204769   3.24668502   1.54884603
H   -4.70415602   4.25743090   0.17031860
H   -3.20897251   4.47850681   1.04702608
C   -3.23078950   2.74339324  -0.21943960
N   -2.71435428   1.98723285  -0.90951763
Na   0.99220718  -0.82160652  -2.27234328
