61
Energy:   -590.25984401
C    4.67358771  -2.60122938  -1.38213759
H    5.08090097  -1.63774200  -1.15699726
H    5.28393294  -3.08369892  -2.11671294
H    4.64967519  -3.19512221  -0.49240809
C    3.24333382  -2.43877348  -1.92947835
N    2.17844479  -2.31781768  -2.33699842
C   -3.06719499  -1.28656014   5.80659017
H   -2.95569200  -2.28065427   6.18638500
H   -4.10586367  -1.03159464   5.77404690
H   -2.55142038  -0.60065103   6.44565538
C   -2.47509833  -1.20996366   4.38702878
N   -2.03425544  -1.15293410   3.33010081
C   -4.82260531  -0.73416415  -1.00409085
H   -5.29780887  -1.53157246  -1.53627666
H   -4.69011489   0.10209892  -1.65831518
H   -5.43369052  -0.44489855  -0.17475415
C   -3.44984621  -1.20641300  -0.49017112
N   -2.42776467  -1.55802374  -0.10753452
C   -0.58813748   4.16262279  -3.59401335
H   -0.59032197   5.21125817  -3.80675560
H   -1.58399269   3.77995887  -3.67610968
H    0.04645090   3.65830793  -4.29248541
C   -0.06503833   3.92995774  -2.16438604
N    0.32443277   3.75672803  -1.09996352
C   -3.06267941   3.66782596  -0.23317442
H   -2.35672713   4.46196812  -0.10719906
H   -4.01005908   3.96632954   0.16465276
H   -3.16723517   3.44540601  -1.27456606
C   -2.56472141   2.41534913   0.51176828
N   -2.19396904   1.48282321   1.06641198
C    2.18474176   2.99249223   1.93596042
H    3.02477882   2.64205527   1.37343765
H    2.52952745   3.51744967   2.80224075
H    1.59902744   3.65119284   1.32937050
C    1.32247195   1.79327459   2.37181341
N    0.68047289   0.90040255   2.69632577
C    2.64190232   1.18318544  -1.81069147
H    2.67461804   0.75622045  -2.79126822
H    3.53474247   0.92634212  -1.27987412
H    2.56640253   2.24774709  -1.88755077
C    1.41845483   0.63518426  -1.05275285
N    0.50754256   0.22717247  -0.48843310
C   -0.84155725  -0.97628595  -3.43237864
H    0.08740202  -0.68250287  -3.87467531
H   -1.40664853  -1.54964846  -4.13723776
H   -0.65063828  -1.56875115  -2.56207177
C   -1.64003718   0.27880864  -3.03392241
N   -2.23454179   1.21328362  -2.73725365
C    0.22148559  -4.46865626  -0.57614266
H   -0.60448917  -5.10269310  -0.32984373
H    1.12119671  -5.04738960  -0.59820415
H    0.05792776  -4.02687576  -1.53686006
C    0.35076159  -3.35900547   0.48383981
N    0.44701345  -2.53282003   1.27304495
C    3.08168053  -1.73616353   3.35168592
H    2.68451698  -2.70131299   3.11578802
H    2.34839578  -1.16980948   3.88688275
H    3.95684822  -1.84881005   3.95690602
C    3.44909445  -1.00006818   2.04985235
N    3.72265081  -0.45201173   1.08057808
Na  -0.82226686  -0.47082765   1.38332253
