61
Energy:   -589.31426140
C    4.28794097  -0.78657584  -3.08293792
H    4.76380995  -0.47361486  -2.17712098
H    4.01690651   0.07342219  -3.65899590
H    4.96193842  -1.39622111  -3.64770263
C    3.02307763  -1.59732798  -2.74470470
N    2.08132939  -2.20096980  -2.49287469
C   -2.97778097  -3.21450673   4.59549766
H   -3.96510054  -3.01901838   4.95865680
H   -2.28915007  -3.21011732   5.41444046
H   -2.95672077  -4.17127692   4.11690978
C   -2.57820282  -2.12514549   3.58296155
N   -2.28069872  -1.31406653   2.82908238
C   -6.35420663  -0.51263624  -0.74794405
H   -6.98999968  -1.24903078  -0.30253359
H   -6.49524160  -0.51416691  -1.80860699
H   -6.59851440   0.45297839  -0.35704612
C   -4.88453183  -0.84033939  -0.42504061
N   -3.79029214  -1.08432928  -0.18462433
C   -0.78472875   3.62560507  -1.58677565
H   -0.15080780   3.22102427  -2.34793186
H   -1.10517234   4.60551374  -1.87312161
H   -1.63891224   2.99361227  -1.46086000
C   -0.00651476   3.70716038  -0.26037763
N    0.57290094   3.76788201   0.72718598
C   -2.04870605   3.50818598   3.15597157
H   -1.09747626   3.97309048   3.00129165
H   -2.06009203   3.02885665   4.11253460
H   -2.81855528   4.25042673   3.11977868
C   -2.29337161   2.46067325   2.05394804
N   -2.47553623   1.68075241   1.23344143
C    2.36758958   1.68783069   2.85662578
H    3.32183792   1.42309225   2.45138036
H    2.36174482   1.49677215   3.90941330
H    2.18163437   2.72692151   2.68166860
C    1.27023195   0.84832209   2.17645556
N    0.45319930   0.22326978   1.67003792
C    3.94588869   2.92073895  -0.37696389
H    4.50787371   2.15020639   0.10816763
H    3.38773935   3.46866083   0.35320734
H    4.61448014   3.58332308  -0.88575347
C    2.97809458   2.28750496  -1.39381651
N    2.25752787   1.81603347  -2.15090951
C   -0.01626245   0.00254637  -4.07513192
H    0.23213630  -1.01169236  -4.30862292
H    0.86196867   0.60984907  -4.14436062
H   -0.75117618   0.35806539  -4.76680174
C   -0.58004187   0.07654855  -2.64395184
N   -0.99980128   0.13164654  -1.57837321
C   -0.44580563  -4.31961813  -2.02913510
H   -0.57208161  -3.75420755  -2.92872692
H   -1.16386301  -5.11244785  -2.00241940
H    0.54139675  -4.73145780  -2.00232774
C   -0.65143058  -3.39956167  -0.81142640
N   -0.80452770  -2.71453782   0.09521309
C    2.61073975  -2.76269572   0.99719246
H    2.40522505  -3.26488269   0.07498200
H    1.68985110  -2.53426140   1.49184479
H    3.20449091  -3.39545722   1.62326877
C    3.37736211  -1.45799069   0.71147417
N    3.94814731  -0.48657849   0.49874392
Na  -1.60176023  -0.50578294   0.65654418
