61
Energy:   -592.20288892
C   -1.10955969  -0.92391872  -2.86326798
H   -1.63941760  -1.69616567  -3.38074786
H   -1.26581418   0.01060736  -3.36040442
H   -1.46863879  -0.85730532  -1.85752251
C    0.39473741  -1.25335342  -2.85050057
N    1.51475498  -1.49863254  -2.84099465
C    4.01935534  -1.06714303  -0.43046475
H    3.80328524  -1.39160293  -1.42692832
H    5.07124371  -1.14455123  -0.25035945
H    3.71117279  -0.04935036  -0.31205574
C    3.25995297  -1.95361555   0.57406226
N    2.69454339  -2.61363464   1.32197828
C    1.57208062   6.79660200   1.25024088
H    1.31438435   7.43351585   0.42997655
H    2.63008015   6.82741710   1.40704175
H    1.07063972   7.13243469   2.13379762
C    1.14194147   5.35222088   0.93347050
N    0.82168332   4.27681348   0.69762055
C    1.51407064  -4.75340883  -1.21704179
H    1.91669497  -4.87919819  -0.23369501
H    2.10929934  -4.04823728  -1.75864585
H    1.52124159  -5.69333061  -1.72830954
C    0.06758483  -4.23450041  -1.11697750
N   -1.00938960  -3.84814951  -1.04247510
C   -3.61614627   1.17918713   3.05320111
H   -3.74304556   0.12173378   2.95029749
H   -4.35967638   1.68568140   2.47395538
H   -3.71887411   1.45223454   4.08266271
C   -2.21552481   1.57917290   2.55333021
N   -1.17269847   1.87698049   2.18115361
C    3.10814406   1.47452814  -3.89165668
H    2.51943320   1.96181615  -4.64056930
H    3.15916725   0.42700423  -4.10376369
H    4.09559580   1.88663962  -3.89015108
C    2.46081884   1.68771694  -2.51067131
N    1.97885580   1.84644570  -1.48246493
C   -4.24877766  -3.16860614  -0.78578555
H   -5.31548838  -3.22136081  -0.85094200
H   -3.89035561  -3.95737443  -0.15787050
H   -3.82622539  -3.27106060  -1.76346226
C   -3.83753009  -1.80998188  -0.18861257
N   -3.53133759  -0.79842436   0.25600986
C   -4.07166352   2.20777788  -1.36598225
H   -4.40210392   3.22501532  -1.39659778
H   -4.52830657   1.70923521  -0.53662622
H   -4.34859320   1.71530459  -2.27465112
C   -2.54027730   2.17003847  -1.20776731
N   -1.40009065   2.14193976  -1.08996909
C    2.95401279  -0.27132999   4.04023075
H    4.00885994  -0.18156829   4.19560295
H    2.71194782  -1.28903761   3.81534226
H    2.43597857   0.03108338   4.92628143
C    2.52979533   0.62897089   2.86502955
N    2.21394614   1.29928581   1.99003883
C   -0.75605074  -2.41382221   2.03446723
H    0.05188501  -3.08988795   2.22175080
H   -1.56587002  -2.94358359   1.57790978
H   -1.08523342  -1.98670486   2.95864720
C   -0.27956202  -1.29306028   1.09189034
N    0.07520549  -0.45860207   0.39009901
Na   0.49385865   1.92309963   0.40184580
