61
Energy:   -589.54413711
C   -3.22806715   2.00716580  -3.05606772
H   -3.69411454   1.62254140  -3.93911023
H   -2.50792619   2.75047068  -3.32771815
H   -3.97092497   2.44498302  -2.42252416
C   -2.52461076   0.86080251  -2.30600086
N   -2.00085550   0.00728293  -1.74754198
C    2.38405737   2.22437536  -1.90547225
H    1.65651853   2.91746810  -2.27318118
H    3.12957867   2.05872196  -2.65490940
H    2.84477694   2.62383527  -1.02622919
C    1.69508308   0.89033093  -1.56306913
N    1.18211040  -0.10292578  -1.30813444
C   -2.80584638   5.05098101  -0.22296719
H   -3.71037514   4.58767533  -0.55774438
H   -2.74827017   6.04514255  -0.61440928
H   -2.79853029   5.08772727   0.84637619
C   -1.59739539   4.23405678  -0.71681030
N   -0.69764870   3.62581957  -1.08449895
C    1.17955858   3.02931377   1.92198078
H    0.74779992   3.65755485   2.67284547
H    1.38294648   3.60882815   1.04579842
H    2.09145081   2.60801419   2.29057041
C    0.19579686   1.89740317   1.57185039
N   -0.53665845   1.05464428   1.31116241
C   -3.51838282   1.36694959   2.94543102
H   -4.41732258   1.21102148   3.50444258
H   -2.96793259   2.17816647   3.37418598
H   -2.92299477   0.47830438   2.97229823
C   -3.87373278   1.70280904   1.48511433
N   -4.13830697   1.95287166   0.39784217
C    5.72991642  -0.74019978   0.23652241
H    6.63116067  -0.32081397   0.63247005
H    5.76452760  -0.71516599  -0.83262419
H    5.63291889  -1.75337928   0.56661009
C    4.52258600   0.07839075   0.73034706
N    3.62367362   0.68786861   1.09802196
C   -5.25663411  -1.60761378  -0.14457890
H   -5.25066591  -2.17264586  -1.05320605
H   -5.54614737  -0.59897493  -0.35369332
H   -5.95226118  -2.04333977   0.54182109
C   -3.84735572  -1.61895621   0.47623167
N   -2.79808390  -1.62740117   0.93845335
C    3.04966874  -2.27017588   3.05521340
H    3.73298388  -2.79576210   2.42138398
H    2.86207014  -2.84921157   3.93522677
H    3.47320783  -1.32740717   3.33216263
C    1.72662544  -2.03722786   2.30229133
N    0.74155956  -1.86378746   1.74170663
C    2.57966325  -2.75072619  -2.94978768
H    2.76883923  -3.64117814  -3.51211139
H    3.13106274  -1.93746811  -3.37342547
H    1.53392122  -2.52603640  -2.97872226
C    3.01887573  -2.96301046  -1.48909340
N    3.34588939  -3.12106574  -0.40154011
C    0.44978737  -5.47903824   0.12233510
H    0.30410322  -6.28353958  -0.56792130
H   -0.07997613  -5.68629111   1.02858891
H    1.49339495  -5.37598241   0.33484816
C   -0.08008867  -4.17118952  -0.49440075
N   -0.47460547  -3.19743670  -0.95358862
Na  -0.66039894  -0.97356969  -0.00305072
