61
Energy:   -589.68525928
C   -3.26177767  -3.65142169   1.27251590
H   -3.94382763  -2.82850294   1.22238836
H   -3.49441691  -4.25612332   2.12405217
H   -3.34705960  -4.24004294   0.38304915
C   -1.82256418  -3.11831567   1.39925386
N   -0.75100432  -2.72139401   1.49361603
C   -4.28682209   3.26571861   0.73856166
H   -4.27673189   3.36368793  -0.32689616
H   -4.86816492   4.05688752   1.16399245
H   -4.71719241   2.32330287   1.00601831
C   -2.84523123   3.34239851   1.27478547
N   -1.77190130   3.39949018   1.67402848
C   -0.44411614   5.28110209  -1.22470807
H    0.59438613   5.12486648  -1.42965596
H   -0.58354554   5.41677829  -0.17254339
H   -0.78311095   6.15263111  -1.74472613
C   -1.25021132   4.05633980  -1.69563046
N   -1.85038581   3.14444861  -2.04625359
C   -1.50774245   0.37383181   3.60456554
H   -0.68595315  -0.30471070   3.50894858
H   -1.97814528   0.23259819   4.55518288
H   -1.15043559   1.37960151   3.52934452
C   -2.52773288   0.10613960   2.48226415
N   -3.28716212  -0.09316941   1.64665975
C    4.88337417   0.72188373  -1.10591215
H    5.38362662   0.56089581  -0.17385498
H    4.54822991   1.73658940  -1.16022432
H    5.55921474   0.52585924  -1.91195993
C    3.67303447  -0.22470462  -1.20910273
N    2.77188154  -0.92948267  -1.28593281
C   -3.25669396   0.16936318  -1.72618849
H   -3.26538928   0.63174837  -2.69108460
H   -3.50931978   0.89440991  -0.98094590
H   -3.97116320  -0.62688876  -1.70580126
C   -1.85228274  -0.39364459  -1.43939350
N   -0.80663474  -0.81282947  -1.22586159
C    1.73717633  -5.49403868  -3.12310956
H    1.84553546  -6.46554403  -2.68798219
H    2.67707164  -5.17557740  -3.52320745
H    1.01060386  -5.53361628  -3.90759994
C    1.27419394  -4.49717943  -2.04444420
N    0.92948251  -3.75497242  -1.24132881
C    3.56979150  -4.09337989   3.66843595
H    4.35391825  -4.73529830   3.32494479
H    2.78112841  -4.68485121   4.08445435
H    3.95263686  -3.43191555   4.41729739
C    3.02530835  -3.27023340   2.48624817
N    2.61991589  -2.65736342   1.60605563
C    1.50667131   2.99218376   1.54636548
H    1.07409132   3.32708914   2.46593773
H    1.06395413   3.52318567   0.72970303
H    2.56089755   3.17465901   1.56081905
C    1.24914674   1.48329392   1.37744967
N    1.05740799   0.35985685   1.25168418
C    0.65954236   1.15847890  -3.69171561
H    0.79127151   0.11441416  -3.49812727
H    1.07493172   1.39910634  -4.64798398
H   -0.38439380   1.39315869  -3.68704801
C    1.37458964   1.97706598  -2.60074238
N    1.90697484   2.58654127  -1.78846323
Na   0.97112319  -1.75440562   0.09980599
