61
Energy:   -589.51395359
C    0.70574326  -0.99869392   4.08394973
H   -0.25632761  -1.15625401   4.52496520
H    1.10864404  -0.06960913   4.42945154
H    1.36102049  -1.79730205   4.36276132
C    0.56742057  -0.95971398   2.55066978
N    0.46443303  -0.93069163   1.40907316
C   -2.02406497  -1.78228950  -3.85311291
H   -1.72308694  -2.79905204  -3.70991253
H   -1.60044084  -1.40959050  -4.76225379
H   -3.09133510  -1.73082443  -3.90954790
C   -1.53087839  -0.92938919  -2.66950484
N   -1.16367856  -0.29436613  -1.78825484
C    4.22578882   0.78327616  -2.89974543
H    5.15289176   0.25092938  -2.85516698
H    4.38353621   1.79960270  -2.60462644
H    3.84718825   0.75704238  -3.90018158
C    3.20931532   0.12446295  -1.94877395
N    2.45250459  -0.36605343  -1.24073245
C   -3.46980074   2.64834270   2.20225570
H   -4.20681215   3.09935848   1.57114625
H   -3.12278521   3.36683172   2.91517423
H   -3.90204915   1.81557873   2.71661411
C   -2.28638153   2.16368675   1.34421864
N   -1.40527214   1.80283837   0.70537106
C    2.15296324  -3.64942949   0.19947894
H    2.87481983  -4.36029395  -0.14475200
H    1.76150074  -3.96710855   1.14326716
H    2.61928425  -2.69281512   0.31053192
C    1.00628701  -3.54590506  -0.82327046
N    0.15253444  -3.46882643  -1.58475388
C   -2.83722310  -2.15902326   0.64888035
H   -1.82963889  -2.34021892   0.33768525
H   -3.34218145  -1.58073017  -0.09643384
H   -3.34349590  -3.09256622   0.77958802
C   -2.83197421  -1.38694136   1.98134498
N   -2.82806617  -0.81209129   2.97342546
C   -2.67652552   1.00215479   6.02784130
H   -2.21461831   0.62785789   6.91747254
H   -3.17255611   0.20177648   5.51966091
H   -3.38971866   1.75667049   6.28660897
C   -1.60094649   1.60687148   5.10640358
N   -0.80012900   2.05711053   4.42035132
C    1.60046944   3.94355258   3.04379865
H    1.82950985   3.52525909   4.00164583
H    0.59993249   4.32274090   3.05021017
H    2.28235542   4.73996197   2.83011036
C    1.72944189   2.85359866   1.96353638
N    1.82546775   2.04207842   1.15923202
C    1.93263073  -3.14322440  -4.49310086
H    1.05898493  -3.72779796  -4.29330858
H    2.65108215  -3.29834453  -3.71549917
H    2.35305569  -3.43939790  -5.43140955
C    1.55089629  -1.65234737  -4.54935454
N    1.26667764  -0.54232165  -4.59123796
C    0.12048093   2.76251105  -4.72168950
H    0.38710434   3.76386461  -4.98834133
H   -0.93103069   2.62374404  -4.86299109
H    0.65739423   2.07378727  -5.33997969
C    0.47738003   2.51227820  -3.24466325
N    0.74310764   2.32596846  -2.14495007
Na   0.46917056   0.72947637  -0.34917542
