61
Energy:   -589.86760579
C   -2.23311315   3.07715396  -0.59918318
H   -2.55739690   2.88113553  -1.59984147
H   -1.39762141   3.74531720  -0.61944441
H   -3.03307857   3.52306530  -0.04590432
C   -1.81751759   1.75583704   0.07387099
N   -1.50808781   0.77205653   0.57499041
C    0.55054478   1.58452491  -3.31920202
H    0.09530026   1.48983887  -4.28288618
H    1.60371867   1.73362936  -3.43535586
H    0.12638024   2.42156424  -2.80505350
C    0.30045288   0.30148987  -2.50503059
N    0.11424809  -0.65378804  -1.89884296
C   -0.22039432  -1.35324861   5.13823410
H    0.77661615  -0.96512473   5.15340551
H   -0.27298711  -2.22556197   5.75565008
H   -0.89726798  -0.61228434   5.50933124
C   -0.60545838  -1.72281301   3.69367610
N   -0.89215607  -1.99797050   2.61813700
C   -0.16873370  -6.09090263   0.70414976
H    0.69045598  -6.54330875   1.15361832
H   -0.47277412  -6.66766255  -0.14426435
H   -0.96678454  -6.05570128   1.41603094
C    0.18086363  -4.66033393   0.25375558
N    0.44115474  -3.59521051  -0.08158335
C   -0.52864826   3.86897173   2.83017806
H   -0.10768344   4.14518091   1.88603967
H   -0.30446263   4.62341281   3.55506326
H   -1.58978695   3.77193829   2.73287300
C    0.07006493   2.52525903   3.28578611
N    0.51583412   1.52480385   3.62500701
C    3.38231912  -2.20462182  -1.72363575
H    2.48661578  -2.48132762  -2.23943572
H    3.31906314  -2.52187285  -0.70370950
H    4.22266328  -2.67345050  -2.19152511
C    3.55303658  -0.67500243  -1.77578992
N    3.68014350   0.46386874  -1.81462107
C   -5.02424249  -1.04750696   0.06315278
H   -5.79457632  -1.77345325  -0.09333348
H   -5.14298813  -0.24531907  -0.63491109
H   -5.09145614  -0.66543546   1.06035024
C   -3.64789279  -1.70713641  -0.14215314
N   -2.62313789  -2.19826051  -0.29501272
C    3.65184998   3.80457842  -1.27046931
H    3.81791621   3.26295148  -2.17819308
H    4.43073865   3.57837411  -0.57257022
H    3.65150240   4.85453539  -1.47659872
C    2.29231914   3.39852756  -0.67180530
N    1.28008664   3.09620423  -0.22607273
C   -2.73386180  -1.85983293  -3.99326471
H   -3.66705231  -2.36778902  -4.11989906
H   -2.08052285  -2.45834571  -3.39340659
H   -2.28597550  -1.69270413  -4.95053422
C   -2.97570664  -0.50788301  -3.29659944
N   -3.15577112   0.49870515  -2.77790049
C    3.51454935   1.17339424   1.90886201
H    4.24466358   1.34099691   1.14483143
H    3.99878405   0.81144116   2.79170164
H    3.01143970   2.09170992   2.12903484
C    2.49089465   0.13142360   1.42098065
N    1.72873720  -0.64437091   1.05773080
Na  -0.42582050  -1.38366688   0.34159205
