61
Energy:   -589.08883946
C    2.93937335  -4.93636866  -1.78369348
H    2.85035187  -4.37080784  -2.68763835
H    2.36364054  -5.83444512  -1.86669648
H    3.96680067  -5.18535073  -1.61846601
C    2.41739436  -4.09944514  -0.60102829
N    2.02875728  -3.47631754   0.27951971
C   -5.07306180   4.72324172  -1.84758078
H   -5.46644216   4.30201083  -2.74908875
H   -4.59411286   5.65426504  -2.06826740
H   -5.87040855   4.88807589  -1.15334238
C   -4.04863148   3.75228200  -1.23164268
N   -3.28589655   3.02935835  -0.77304877
C    4.44135875  -1.06866144  -1.61176547
H    4.24551080  -1.78024481  -0.83704432
H    5.49601602  -0.90454442  -1.68701671
H    4.07152082  -1.44430647  -2.54289908
C    3.73760424   0.25993127  -1.27834232
N    3.21362702   1.24912894  -1.03009363
C   -0.62475118  -3.91117511   2.28257154
H   -1.32275406  -4.63067726   2.65674905
H    0.36845910  -4.20419762   2.55196017
H   -0.70421958  -3.85789192   1.21685827
C   -0.93525462  -2.53058199   2.89014890
N   -1.16643854  -1.50266766   3.34251787
C   -4.49506285  -1.01123514   2.28848519
H   -5.39005989  -0.42685228   2.33724126
H   -3.91614348  -0.85154597   3.17406456
H   -4.74958435  -2.04761566   2.21081075
C   -3.67382515  -0.59052869   1.05553153
N   -3.06237636  -0.27729361   0.13754149
C   -1.32018213   1.66767545   4.86252111
H   -2.15885360   2.04570765   5.40898428
H   -0.44345653   2.22124871   5.12673305
H   -1.17520910   0.63475880   5.10119476
C   -1.58360489   1.81348808   3.35224063
N   -1.77973512   1.92205221   2.22776816
C    2.58922182   4.50330931  -0.23004958
H    2.78065443   4.78339011  -1.24484438
H    3.35705629   3.83893854   0.10750162
H    2.57874485   5.37841039   0.38556996
C    1.22367090   3.79690695  -0.14135684
N    0.20695618   3.27095829  -0.07532107
C   -1.04259330  -2.27809267  -1.86234260
H   -1.70193685  -1.49340496  -2.16963964
H   -0.97005077  -2.28543353  -0.79483017
H   -1.42534537  -3.21840492  -2.20029646
C    0.35284086  -2.04354389  -2.47008464
N    1.39180502  -1.86891166  -2.92257621
C    2.26288867  -0.44086011   2.09763985
H    2.74104342  -1.36946061   1.86532682
H    1.90049852  -0.46825840   3.10403033
H    2.96654110   0.35847813   1.99356907
C    1.08353860  -0.21538566   1.13332938
N    0.20545887  -0.04750967   0.41535641
C    1.38047016   1.56091755  -3.95842364
H    1.11056063   1.98804904  -4.90161382
H    1.83655312   0.60602477  -4.11674991
H    2.07107238   2.20755456  -3.45859544
C    0.11856639   1.38982505  -3.09244082
N   -0.82097832   1.26243891  -2.44767725
Na  -1.49758764   1.56359464  -0.15126833
