12
Energy:    -97.25478338
O    0.15793411   1.88576730   0.61806975
H   -0.50393043   2.50328727   0.92925500
H   -0.19583798   1.54953951  -0.20535482
O   -0.05474080  -0.70939173   1.52086493
H   -0.78857658  -0.83534944   0.91932394
H    0.14637618   0.22457761   1.46183035
O   -1.28253431  -0.22990067  -1.03441095
H   -1.73714968  -0.68656102  -1.74223724
H   -0.37355097  -0.52127389  -1.10570450
O    1.30917832  -1.00538291  -0.82952569
H    2.25898637  -1.09807567  -0.75533297
H    0.99294665  -1.04506895   0.07305638
