12
Energy:    -97.60926631
O   -1.44881206   0.66610199   0.74300528
H   -1.92781704   0.16135887   0.08572265
H   -0.84690878   1.21066783   0.23566680
O    1.21792773   0.78074536  -0.58461531
H    1.25938965   0.28992237   0.23611945
H    2.13315411   0.93802638  -0.81668256
O    0.77297712  -0.70880470   1.79330508
H   -0.06949866  -0.32382267   1.55194383
H    0.64224422  -1.03290420   2.68442812
O   -0.89451238  -0.60914002  -1.93734243
H   -0.48860712  -1.36956421  -2.35354890
H   -0.15709409  -0.07297576  -1.64583941
