12
Energy:    -98.01800672
O    0.62136089  -0.30587838  -1.37055222
H    0.97863203  -0.51363098  -0.50717047
H    0.35022099   0.60970866  -1.30410387
O    0.57397851  -0.34689346   1.45840163
H   -0.22945699  -0.77821765   1.16739873
H    0.94224467  -0.94130307   2.11207517
O   -1.40184332  -1.57445301  -0.05740558
H   -0.85732505  -1.16042683  -0.72696814
H   -2.09404389  -2.01546280  -0.54995059
O    0.15193087   2.21977411  -0.31285489
H    0.40264793   1.74442714   0.47924236
H    0.59145361   3.06642484  -0.23389836
