12
Energy:   -114.91592756
O   -0.45068969  -1.87217825   0.25627957
H   -0.77605230  -2.61129370   0.77016611
H   -0.76644458  -1.09817134   0.72258849
O    1.17887697  -0.45227937  -1.40970988
H    1.80969012  -1.03998097  -1.82553852
H    0.62320473  -1.02887967  -0.88531280
O   -1.14049303   0.49647736   1.42300717
H   -1.09879672   0.93030334   2.27523266
H   -0.65459654   1.07495289   0.83521255
O    0.39392924   1.93621084  -0.33074031
H    0.12462156   2.46312978  -1.08311101
H    0.76678494   1.14260854  -0.71467503
