12
Energy:   -100.56860812
O    0.66319436   1.14790863  -1.40338239
H   -0.22923501   1.45236470  -1.23873681
H    1.05586856   1.07402867  -0.53356599
O    1.09185041  -0.13122024   1.14470049
H    1.76458974  -0.56349213   1.67081326
H    0.83688764  -0.78676209   0.49547733
O   -0.07240113  -1.48064340  -0.89471630
H   -0.89418885  -1.14592006  -0.53574962
H    0.26401836  -0.76399122  -1.43273436
O   -1.59551864   0.42484839   0.62496050
H   -2.20344123   0.43203801   1.36429146
H   -0.72919980   0.36219535   1.02720186
