12
Energy:   -102.71680788
O   -1.51442842   0.67533353   1.42919645
H   -0.79111231   1.06594696   0.93882231
H   -2.06435570   1.41817081   1.67820368
O   -0.19846153  -1.70773155   0.31291839
H    0.07497200  -2.39416935   0.92141580
H   -0.63574166  -1.05869459   0.86407078
O    0.91264374  -0.36623366  -1.84409526
H    0.39897074  -0.95162172  -1.28759483
H    0.86810949  -0.76213849  -2.71444456
O    0.72743369   1.54780118   0.08793894
H    1.65893825   1.47099761   0.29441489
H    0.60279181   0.98088357  -0.67317910
