12
Energy:    -97.57723120
O   -1.45386993  -0.94691791   0.69753581
H   -0.97925800  -0.39414625   1.31835692
H   -1.99154085  -1.51755002   1.24664493
O    1.77997752   0.04613089  -0.22780188
H    2.55912762  -0.32691236  -0.64010723
H    1.05550000  -0.23179352  -0.78826792
O   -0.33859776  -0.72783190  -1.77789992
H   -0.78479437  -0.94029012  -0.95814268
H   -0.86424609  -0.02636313  -2.16243504
O   -0.03305015   1.62250811   1.17778180
H    0.47084082   2.39374660   1.43762202
H    0.60477899   1.05275650   0.74791097
