12
Energy:    -97.21649587
O   -1.46442694   1.33098179  -0.09596733
H   -1.90986487   1.87494475   0.55358728
H   -1.29370435   0.50595612   0.35836548
O    0.37688008  -1.29707448  -1.24630996
H    0.45731054  -1.53292483  -2.17050550
H    0.76033814  -0.42199952  -1.18769604
O   -0.09698962  -0.85635946   1.39587326
H   -0.08792337  -1.19670086   0.50126866
H    0.20934263  -1.58661369   1.93357314
O    1.29897142   1.08852747  -0.21772742
H    0.41125781   1.44200449  -0.27473960
H    1.27632003   0.50396475   0.53990388
