12
Energy:   -102.31961428
O   -0.96738430  -0.57947576  -1.85449156
H   -0.84552008   0.11715626  -2.49953791
H   -1.40607164  -0.15160619  -1.11915973
O   -1.47111391   0.71604743   0.44638289
H   -2.09724210   0.70926781   1.17036450
H   -0.61395806   0.67025751   0.86996166
O    1.28371885  -0.63869593  -0.51074850
H    1.66983181  -1.50976230  -0.60235637
H    0.45148043  -0.69449631  -0.98031998
O    1.08576872   0.35860686   1.95319228
H    1.21501935   0.02298833   1.06612615
H    1.73315498   1.05808160   2.04183748
