12
Energy:   -103.48801122
O   -1.33566426  -0.85581806   1.30151097
H   -1.64478607  -1.11746855   2.16881402
H   -0.45997229  -0.50138202   1.45568787
O    1.65812144  -0.36891692   1.13458033
H    1.57418255  -0.07318979   0.22808621
H    2.31226786   0.21529790   1.51800874
O   -1.43435552   0.52389010  -1.19998520
H   -2.24256878   1.02002407  -1.32988614
H   -1.58600225   0.02382120  -0.39800876
O    1.27484234   0.54013420  -1.33982943
H    0.31849985   0.54899307  -1.30030225
H    1.47645772   0.13237272  -2.18203705
