12
Energy:    -97.92789337
O   -0.60877893   1.45961699   1.06622647
H   -0.50745542   2.23583109   1.61709585
H    0.17151824   0.93486239   1.24511410
O    1.46659038  -0.29131138   1.21497919
H    2.23657049  -0.69671617   1.61373905
H    1.45270875  -0.63112235   0.32023473
O    0.93360414  -0.98025875  -1.48757258
H    0.00887417  -0.90129377  -1.25332727
H    0.92616594  -1.29644594  -2.39101166
O   -1.97239809   0.04882542  -0.99935977
H   -1.56144684   0.60283785  -0.33571744
H   -2.44712527  -0.61417217  -0.49806130
