12
Energy:   -114.90849302
O   -0.56718410  -1.31539374  -1.26509215
H   -0.23959392  -1.43841232  -0.37414717
H   -0.71539082  -2.20311396  -1.59100539
O    0.66093698   1.34132680   1.27908893
H    0.22829576   1.48704293   0.43776841
H    1.44749588   1.88554603   1.24190867
O   -0.48809117   1.42040715  -1.21513088
H   -0.55940438   0.47028364  -1.30684556
H   -0.70996257   1.76243280  -2.08116978
O    0.36825049  -1.37962333   1.29629495
H    0.52075315  -0.43656358   1.35640388
H    0.06814024  -1.63036392   2.16996242
