12
Energy:   -107.24470241
O    0.39952995  -1.70481937   0.10491118
H    0.36162813  -1.12710408  -0.65734884
H   -0.14541945  -2.45437844  -0.13472019
O    0.12916244  -0.06052124  -2.10368659
H   -0.15436639   0.61946746  -1.49257399
H   -0.35926973   0.11984459  -2.90688895
O   -0.78654684   1.56611998  -0.06895680
H   -0.30646182   1.42640239   0.74727185
H   -1.67632922   1.78228293   0.20995670
O    0.53921596   0.23272427   2.11352602
H    1.28489835   0.06153207   2.68875019
H    0.56031798  -0.47984561   1.47475320
