12
Energy:    -98.48197542
O   -0.38617275  -0.71854058  -2.13786873
H    0.22339991  -1.40701306  -2.40368570
H   -0.57099884  -0.90400182  -1.21717590
O   -0.85835556  -1.47543195   0.41296869
H   -0.47900472  -0.81421697   0.99186379
H   -1.25858609  -2.11189378   1.00539059
O    1.16124438   1.46772949  -0.34780976
H    0.55196039   1.07288854  -0.97159296
H    1.72896427   2.02101012  -0.88428577
O    0.01257860   0.61074367   1.99409860
H   -0.62374604   1.26869074   2.27414939
H    0.53732590   1.05310535   1.32687430
