12
Energy:   -103.01527114
O   -1.67211967   0.12629947  -0.98062917
H   -0.75872398   0.32656829  -1.18515926
H   -2.16529814   0.46591157  -1.72740254
O    0.95114717   0.67201917  -1.47776303
H    1.37489761   0.47988607  -0.64125106
H    1.39924144   1.45419028  -1.79971292
O    1.65605846   0.03292059   1.04499557
H    2.44045518  -0.15446333   1.56059319
H    0.95859587  -0.45450972   1.48338978
O   -1.07737353  -0.92441252   1.48466230
H   -1.87503177  -1.44429432   1.58313108
H   -1.15415089  -0.52923723   0.61623062
