12
Energy:    -97.22529210
O   -1.22583974  -1.07038064  -0.52762662
H   -0.37076195  -1.34977088  -0.20049529
H   -1.66013775  -1.88257680  -0.78830742
O    0.73889404   1.04277222  -1.16515550
H    0.37605792   1.52021914  -0.41908162
H    0.04467843   0.43603968  -1.42239500
O    1.49734625  -1.12339517   0.30698231
H    1.38000137  -0.28134909  -0.13281357
H    2.44639489  -1.23185621   0.36842119
O   -0.88793555   1.48876803   1.14220922
H   -1.21552010   1.66540871   2.02409259
H   -1.19005122   0.60168091   0.94718511
