12
Energy:    -97.68857876
O    1.04593579  -0.13604836   1.79297982
H    1.42680914  -0.39084467   0.95259527
H    0.79026258  -0.96320550   2.20123725
O    0.94377889  -0.22236071  -1.44011435
H    0.10802354  -0.64933868  -1.25187340
H    1.14813499  -0.48059646  -2.33888281
O   -1.50673484  -0.80424455  -0.37069425
H   -2.46174987  -0.80969377  -0.43510266
H   -1.29553147   0.05627080  -0.00856400
O   -0.41327134   1.59075622   0.25236363
H    0.04150982   1.22707842   1.01206383
H    0.13476764   1.34845697  -0.49407874
