12
Energy:    -99.17298650
O   -1.29871888   1.51986668  -0.20683771
H   -1.71286684   0.94564182  -0.85102645
H   -0.54152401   1.88624388  -0.66362597
O    1.21327779  -1.34040345   0.21625675
H    0.91884235  -0.67919830   0.84263313
H    1.50287495  -2.07342879   0.75943183
O    0.14938998   0.56722789   1.89152103
H   -0.16396442   0.78859338   2.76846926
H   -0.51208886   0.92912962   1.30185610
O   -0.18531499  -0.69922970  -2.03200563
H    0.23392310  -1.02200237  -1.23432833
H    0.46244317  -0.84835751  -2.72077417
