12
Energy:   -103.29204225
O    1.50142952   1.53107378  -0.16933826
H    1.85600217   2.21664986   0.39678498
H    1.24350128   0.83264089   0.43223998
O   -0.60746555   0.17082677  -1.73211133
H   -1.25698455   0.87002214  -1.65806564
H    0.19046132   0.54383730  -1.35740118
O   -1.51357850  -1.28949076   0.22984918
H   -1.19269584  -0.82362079  -0.54231100
H   -2.31743054  -1.71746883  -0.06491941
O    0.72718953  -0.39464148   1.53892402
H    1.35607694  -1.07961542   1.76595526
H   -0.04524834  -0.86991604   1.23284285
