12
Energy:   -101.94617623
O   -1.72442054  -0.32907654   0.79191992
H   -2.21488298   0.28866169   0.24963041
H   -1.34030587  -0.94431401   0.16728352
O    0.28767512   1.57470928   1.37640093
H   -0.41685563   0.92685764   1.36388998
H    0.66700985   1.49985845   2.25203462
O   -0.43324430  -1.44418560  -1.70564992
H    0.27460716  -0.83445100  -1.49731874
H   -0.02881443  -2.30988249  -1.64875344
O    1.53825239   0.22494939  -0.61826436
H    1.15655747   0.74335673   0.09011031
H    2.41557069   0.58910235  -0.73631967
