12
Energy:    -97.22911294
O    0.45279535  -1.81484912   0.10838095
H    1.28257496  -2.28902329   0.16182711
H    0.50870352  -1.15468816   0.79924536
O    0.34877042   1.96735011  -0.38268947
H    0.02411594   1.36408419  -1.05119642
H    0.68089567   2.71689839  -0.87675632
O   -0.79322478  -0.25169493  -1.73524995
H   -0.34398439  -0.84247553  -1.13077232
H   -1.55869290  -0.74560001  -2.02910054
O    0.10173093   0.13414257   1.98180366
H   -0.24930636   0.85681826   1.46147251
H   -0.51448438   0.03995343   2.70819127
