12
Energy:    -97.29224845
O    1.79104093   1.13548127  -0.28837979
H    1.98769265   1.76225140  -0.98459753
H    1.65736241   0.30450563  -0.74427605
O   -2.19297293  -0.05932555  -0.44518919
H   -1.51926289   0.02413699   0.22962977
H   -2.99335613  -0.26305061   0.03866480
O    0.64173502  -1.26201017  -0.98527344
H   -0.14994630  -1.04686872  -1.47841307
H    0.36342570  -1.25467577  -0.06945578
O   -0.16520668   0.03580210   1.46688071
H    0.12602884   0.05181083   2.37855907
H    0.41272520   0.65388038   1.01943705
