12
Energy:   -100.47748934
O   -1.33957986  -0.65502227   1.00051070
H   -1.96129395  -1.32801670   1.27760623
H   -0.55587886  -1.14231477   0.74636388
O    0.77089760  -1.84894834  -0.16083829
H    1.13221293  -1.12237465  -0.66855253
H    0.49601445  -2.48791122  -0.81840771
O    1.66002864   0.68740109  -1.04245997
H    2.29716745   1.40047543  -0.99990459
H    0.85091588   1.06780135  -0.70060615
O   -0.99575449   1.91511970   0.12572476
H   -1.25351437   2.44703509   0.87862429
H   -1.15341447   1.01294083   0.40402040
