12
Energy:   -101.16901127
O   -0.00959034  -1.12679017   1.29131388
H   -0.27641014  -0.20791755   1.26462748
H   -0.21332721  -1.41006145   2.18265024
O   -0.82439712  -0.61331478  -1.42965179
H    0.10051361  -0.42542398  -1.58924205
H   -0.82437344  -1.18213996  -0.65980131
O    1.74261871   0.13991026  -0.65450821
H    1.27386671   0.89930797  -0.30836009
H    1.64451432  -0.53107752   0.02105287
O   -0.64749206   1.45131993   0.32082801
H   -1.21519180   2.21529720   0.21940027
H   -0.89332927   0.87218479  -0.40055844
