12
Energy:    -97.88057899
O    1.78645925  -0.94046177   0.21485501
H    1.08213634  -0.81669661   0.85112796
H    2.55451681  -1.15253301   0.74527487
O   -0.52584369  -0.76669089  -1.51192324
H   -1.00458727  -0.90566225  -0.69477981
H    0.38956160  -0.92950179  -1.28442023
O   -0.89078487  -0.24313798   1.39906155
H   -1.46952780  -0.07820573   2.14343096
H   -0.84309472   0.59628643   0.94154197
O   -0.36247288   1.77422688  -0.47606373
H   -0.32221629   2.53522721  -1.05527851
H   -0.39816431   1.02329114  -1.06856140
