12
Energy:    -97.44163273
O   -1.27272241   0.53650697   0.96291330
H   -0.57654088  -0.04432064   1.26983741
H   -2.00174113   0.37461924   1.56170869
O    0.41868276  -1.02017067  -1.03690390
H    0.18499849  -0.14862573  -1.35632983
H    0.60900851  -1.52297000  -1.82886399
O    1.27381118  -1.12736466   1.58288307
H    2.22566957  -1.02956176   1.55774263
H    1.01840181  -1.22614291   0.66569129
O   -0.54306455   1.57730467  -1.48024282
H   -0.99776643   1.20182132  -0.72625986
H   -0.27141136   2.44731935  -1.18782046
