12
Energy:    -98.87434524
O   -0.77024389   0.69722139  -1.69618837
H   -0.25627198  -0.09704004  -1.55053980
H   -1.59052750   0.38551275  -2.07855516
O    1.55354272   0.52031778   0.96623142
H    2.04289573   1.30434069   1.21537708
H    0.63987215   0.73953452   1.14893875
O    0.32872960  -1.56380609  -0.24103110
H    0.71504040  -2.35189898   0.14094458
H    0.86646708  -0.84632042   0.09405779
O   -1.17769162   0.59762514   0.97464929
H   -1.16746508  -0.35951948   0.97585037
H   -1.14849148   0.83677574   0.04826590
