12
Energy:    -99.47453345
O    0.52366775   1.02631534  -1.68698368
H    0.18850022   1.58380824  -0.98477557
H   -0.05174039   1.20513665  -2.43073113
O    1.61917604  -1.20892741  -0.18163957
H    2.23766676  -1.74874377  -0.67387872
H    1.25796514  -0.60530198  -0.83078891
O   -0.65607283  -1.03047547   1.38558656
H   -0.80632155  -1.86722568   1.82548002
H    0.14100792  -1.16813235   0.87378121
O   -1.45714563   1.38439339   0.53113418
H   -1.78172579   1.83086979   1.31314339
H   -1.23115489   0.50473974   0.83340805
