12
Energy:    -98.06001878
O   -0.29177823  -0.49410168  -1.72874838
H    0.12095024  -0.99866873  -1.02782103
H    0.07316914  -0.85973487  -2.53457568
O    1.55276107   0.99838301   0.69278332
H    1.80906804   1.60851125   1.38436276
H    0.65391418   1.24564602   0.47560339
O    0.37037105  -1.49128753   0.76184654
H   -0.46120978  -1.05588887   0.94928501
H    1.02641611  -0.79836189   0.83728382
O   -1.43707525   0.78724407   0.34590936
H   -1.13199321   0.44985259  -0.49630427
H   -2.39068142   0.71748900   0.30117298
