12
Energy:    -97.48718744
O   -0.21366467  -0.63853824  -1.28198061
H   -0.80040827   0.04301740  -0.95419150
H   -0.78193993  -1.22418391  -1.78229473
O   -1.82160562   1.15755696  -0.11663290
H   -1.40100615   0.89878113   0.70334454
H   -1.75508797   2.11235521  -0.12957757
O    2.24036132  -0.49192874  -0.20643421
H    1.43358882  -0.59981432  -0.71013123
H    2.91948895  -0.35624414  -0.86719681
O   -0.17221621   0.01103365   1.75804949
H    0.36792588  -0.31433428   1.03790084
H   -0.03338782  -0.61851856   2.46559634
