12
Energy:   -101.17687206
O   -1.48752689   1.01919529  -0.17622844
H   -0.77998180   1.01607732  -0.82090050
H   -2.28879867   0.99256545  -0.69918755
O    1.70339994  -0.82492938   0.60428507
H    0.82270694  -0.78562618   0.97720189
H    2.28199641  -0.90234061   1.36287948
O    0.67805128   0.73431580  -1.92293451
H    1.12168530   0.20420774  -1.26081205
H    1.25983105   1.48172703  -2.06128405
O   -0.86649223  -0.90821841   1.60888940
H   -1.25973230  -1.74704179   1.36812101
H   -1.20011864  -0.29105187   0.95771298
