12
Energy:    -99.58734458
O   -1.13808906   0.87968557  -0.95572092
H   -1.34096592   0.00882100  -0.61415433
H   -0.95003520   1.40476710  -0.17780256
O    1.28788512  -0.12315276  -1.52374057
H    0.49420980   0.41188964  -1.53014177
H    1.66517041  -0.00326018  -2.39524125
O    0.02953080  -1.46444883   0.59375517
H    0.59885202  -1.21798159  -0.13518866
H   -0.00780184  -2.42019778   0.55657904
O   -0.29535650   1.06644933   1.83077405
H    0.01598780   0.19311339   1.59290663
H   -0.29602813   1.06853392   2.78797155
