12
Energy:    -97.31030960
O    0.57261436  -1.28650658  -0.72634853
H   -0.35018152  -1.33668983  -0.47702692
H    0.70241417  -2.02872325  -1.31668594
O    1.27299230   0.52445076   1.52592545
H    1.05312596  -0.28599551   1.06650464
H    2.21506597   0.46281378   1.68381759
O   -1.94939900  -0.33200562  -0.01395025
H   -1.47141617   0.45855898  -0.26449343
H   -2.76779200  -0.00844204   0.36257513
O    0.04975321   1.48471992  -0.79759974
H    0.31770160   0.62999912  -1.13507250
H    0.38462979   1.50449676   0.09889253
