12
Energy:   -105.89679203
O    1.83056365  -0.37037528  -0.17837340
H    2.64112537  -0.17184747   0.29046374
H    1.38331966   0.47269516  -0.25210866
O   -0.37109683  -1.96179192   0.29822822
H   -0.29782959  -2.90195589   0.13404697
H    0.50849040  -1.62065277   0.13641896
O    0.26249131   2.14676331  -0.29679847
H   -0.21375882   2.97685456  -0.27766228
H   -0.41909142   1.47755401  -0.23486510
O   -1.68999592   0.28366620  -0.04221941
H   -1.22331081  -0.55155146  -0.01309358
H   -2.42836030   0.16698432   0.55563947
