12
Energy:   -100.78654958
O   -0.38211736  -0.24285649   1.75760240
H   -0.42809547  -0.80290693   2.53249682
H    0.35398306  -0.59013951   1.25383408
O    0.08825500  -0.31820096  -1.90518543
H   -0.65259907   0.23413352  -1.65559834
H   -0.09007127  -0.56297492  -2.81321478
O    1.70552168  -0.99675831   0.10063500
H    1.15678673  -0.74422626  -0.64189403
H    2.60143745  -0.84632935  -0.20092414
O   -1.44629093   1.60241530   0.12034975
H   -1.03558637   0.98469139   0.72530494
H   -1.85231247   2.25879844   0.68651186
