16
Energy:   -379.73813920
Na   0.45807825   0.25981633  -0.77144308
O    2.73356971   0.23778739  -1.11224558
H    3.16072053  -0.02482862  -1.92760248
H    3.45547017   0.45208209  -0.52134004
O   -1.64477053  -0.88893811   2.49574679
H   -2.59386087  -0.76510569   2.48457018
H   -1.48660118  -1.46417160   3.24429254
O   -0.41034294  -1.68984519   0.17158407
H   -0.92554269  -1.52945863   0.96220232
H   -0.35571822  -2.64350466   0.11008922
O   -0.27745458   1.49109166   1.08706516
H   -0.27187471   2.40530311   1.37064608
H   -0.45777031   0.99351673   1.88464730
O   -0.26899294   0.92067969  -2.84284126
H   -0.81092388   0.41576815  -3.44914732
H   -0.32408584   1.82064478  -3.16418136
