16
Energy:   -379.21840483
Na   0.59797598   0.47329112  -0.59555467
O    2.56526872   1.61383990  -1.09052224
H    2.71570756   2.46858062  -1.49427750
H    3.44213566   1.28136102  -0.89870462
O    0.09548397  -0.38455096  -2.71309334
H   -0.01516100  -0.00176431  -3.58341737
H   -0.09162547  -1.31536788  -2.83475586
O   -1.82074282  -1.17794659   2.17469630
H   -1.84317178  -1.26427945   3.12773115
H   -2.55943553  -1.70413650   1.86860954
O    0.74656911  -1.14858762   1.01085444
H   -0.08386052  -1.22139440   1.48129853
H    1.31965436  -1.78701920   1.43536623
O   -1.40023150   1.29041791   0.47234981
H   -1.80147409   2.14394800   0.63582036
H   -1.90098872   0.68183551   1.01558228
