16
Energy:   -379.78844952
Na   0.96661297   0.25353903   0.10432621
O   -3.00304492  -0.99161701  -0.18967998
H   -3.20932509  -1.39321971  -1.03371530
H   -3.84406349  -0.94275676   0.26477826
O    2.09591177   1.84908654   1.33697347
H    1.82603783   2.19402525   2.18810048
H    2.97572494   2.20159389   1.20318552
O   -1.10121255   1.04436402  -0.49032929
H   -1.83992178   0.43906827  -0.42585002
H   -1.48986771   1.86630883  -0.78963807
O   -0.10576055  -1.56054033   1.12955375
H   -1.05918903  -1.64406141   1.14472662
H    0.20815441  -2.29874589   1.65180063
O    2.31292574  -0.24852167  -1.72665745
H    2.78421773  -1.06738655  -1.88020231
H    2.48392782   0.27697732  -2.50822060
