16
Energy:   -378.75387904
Na   0.06801090  -0.50442247   0.86412454
O   -0.48419564   1.62422797   0.16062857
H   -0.40662001   1.74971562  -0.78513393
H   -0.65642250   2.50032178   0.50563495
O    1.22494746  -0.82015492   2.85144920
H    1.01137485  -1.41988311   3.56625314
H    2.04778874  -0.41095576   3.11925532
O    0.00018947   1.86254096  -2.54651630
H    0.63212021   2.54414792  -2.77522430
H   -0.66537109   1.91234680  -3.23265067
O    1.20573213  -1.07133730  -1.08103701
H    1.22352989  -0.53272652  -1.87212077
H    1.72137442  -1.84568508  -1.30627110
O   -1.95371473  -1.69242699   0.85779010
H   -2.15533972  -2.56423027   0.51788093
H   -2.80184123  -1.33567283   1.12168358
