16
Energy:   -379.13039821
Na  -0.60327659  -0.23808900   0.73808317
O    1.86380037   0.92075148  -2.48570303
H    1.97632062   1.83016823  -2.76234760
H    2.34362548   0.41035686  -3.13800437
O   -1.91379637   1.23005419   1.98856970
H   -1.61417017   1.96478752   2.52394146
H   -2.86727165   1.31377706   1.97821509
O   -0.58671663   0.02124561  -1.54690957
H    0.23898579   0.34532014  -1.90666372
H   -1.12973794  -0.15654068  -2.31486253
O   -1.23173214  -2.32734117   1.41671697
H   -0.84334479  -3.17822645   1.21329289
H   -1.96566624  -2.53097533   1.99646322
O    1.72625217   0.10566729   0.80133090
H    2.23458802   0.11865307  -0.00963018
H    2.38132334   0.17046872   1.49625132
