16
Energy:   -378.38146143
Na   0.01094744   0.13634237   0.92610530
O    0.48762072  -0.44208893  -3.12886666
H    0.51883421   0.35872724  -3.65226997
H    0.69329932  -1.14199929  -3.74858729
O   -0.20135497  -0.96999604   2.97766165
H   -0.12124325  -1.90004866   3.18935974
H   -0.42251956  -0.55255980   3.81016694
O   -1.27953806   2.01805427   1.58891937
H   -2.19673997   2.22653824   1.41141740
H   -0.95973827   2.76007121   2.10211601
O   -1.01613591  -0.93619465  -0.85767250
H   -1.87126519  -1.29825892  -1.08982596
H   -0.56557351  -0.82877196  -1.69533934
O    2.01357983   0.26328260  -0.36417730
H    2.93969146   0.46946963  -0.23754398
H    1.96910011  -0.11053967  -1.24423998
