16
Energy:   -379.77346059
Na  -0.48796291  -0.85886666  -0.21234147
O    1.29841267   2.72767737   0.49865134
H    1.47862431   3.42762727  -0.12890404
H    1.70475364   3.02480957   1.31279587
O   -1.51524543   1.08572548   0.47826152
H   -2.43770116   1.28779034   0.63471303
H   -1.04305921   1.85164856   0.80480992
O   -0.36090005  -2.49625308   1.45083583
H    0.33366978  -2.60736340   2.10003464
H   -0.96867139  -3.21513429   1.62420145
O   -1.14509927  -1.59737601  -2.30464425
H   -1.65612064  -1.21518802  -3.01810157
H   -0.89699034  -2.46460404  -2.62493999
O    1.60671097   0.09479382  -0.19838474
H    2.52375929  -0.06782188  -0.41931542
H    1.57385268   1.02632427   0.01933803
