16
Energy:   -378.35139955
Na  -0.97832498  -0.06737773  -0.17532043
O   -3.01245025   0.97945620   0.14673130
H   -3.20086426   1.78986276   0.61998937
H   -3.87197020   0.64797413  -0.11322437
O    3.00179244   0.68141550   0.44348951
H    3.52408283   1.43442942   0.71992148
H    3.64038113  -0.02050081   0.31799119
O    0.17538752  -0.76438909   1.73896492
H    1.08918420  -0.56072193   1.93828166
H   -0.13164042  -1.25859023   2.49905105
O    0.74347031   1.20310256  -1.04273432
H    1.57539273   1.06972726  -0.58847894
H    0.91529961   1.92073665  -1.65241281
O   -1.17504278  -2.04259995  -1.38679806
H   -0.90669812  -2.91799617  -1.10768438
H   -1.35331214  -2.13329234  -2.32286791
