16
Energy:   -379.28429988
Na   0.65889195  -0.19352851   0.67556876
O   -1.16151852   1.19753853   0.74970923
H   -1.63801945   1.15592789  -0.07941517
H   -1.62682642   1.85961765   1.26095443
O    0.62393075  -0.51911432  -1.65415614
H   -0.12877350  -0.17979081  -2.13843676
H    1.28956199  -0.67555844  -2.32400099
O    0.26136899  -2.23233950   1.73075918
H    0.59300119  -3.08754656   1.45713020
H   -0.37388087  -2.43024036   2.41889049
O   -2.31958285   0.86100955  -1.79939617
H   -2.40000642   1.51836486  -2.49051692
H   -3.06551690   0.27688012  -1.93580380
O    2.75386187   0.63965920   1.26900933
H    3.28369429   0.56734128   2.06291082
H    3.23827745   1.24889277   0.71186674
