16
Energy:   -378.35584353
Na  -0.15851508   0.04224172   0.97657312
O   -2.21838190  -0.96716411   1.39826515
H   -2.42233429  -1.87590185   1.17728782
H   -2.99375325  -0.65355034   1.86375148
O   -0.23259458   1.94394349  -0.49647144
H    0.18902108   1.81925043  -1.34672065
H   -0.66996293   2.79240126  -0.56760632
O    0.75955889   0.08797581   3.10621847
H    1.49544196   0.56207793   3.49343305
H    0.33143059  -0.33837361   3.84862279
O    0.99273118  -1.12207442  -0.66356087
H    0.98051357  -0.74776523  -1.54445542
H    1.46058612  -1.95136390  -0.76165546
O    0.78723374   0.13033182  -3.11019680
H    0.15808350  -0.25129352  -3.72237644
H    1.47460010   0.49418896  -3.66819978
