16
Energy:   -378.75735994
Na   0.74426727   0.55725572  -0.05705151
O    1.81167074   0.85483305  -2.12247361
H    2.07087766   1.68976893  -2.51225007
H    1.92874517   0.21537080  -2.82504991
O   -1.39944567   1.40467531   0.35618661
H   -2.17864453   0.86895206   0.20758786
H   -1.74215497   2.27102956   0.57576006
O    0.14307550  -1.63723764  -0.09603681
H    0.52925532  -2.50123451   0.04751254
H   -0.79312357  -1.76427711   0.05766456
O   -2.58026555  -1.73423761   0.27911913
H   -2.95930042  -2.10833222   1.07449178
H   -3.04450916  -2.16973219  -0.43576142
O    2.22094565   1.26808961   1.54191632
H    2.05585185   1.41226606   2.47368294
H    3.17020017   1.35079756   1.45077305
