16
Energy:   -378.35940257
Na   0.80697851  -0.67318512  -0.30407733
O    0.18809856   1.53011629  -0.20804335
H   -0.63538738   1.64938842   0.26511298
H    0.44844571   2.41509469  -0.46351241
O    0.27168542  -1.40903994  -2.44498325
H    0.64938405  -2.05459610  -3.04233812
H   -0.49877523  -1.07732794  -2.90605742
O    3.01177809  -0.72320194   0.44346850
H    3.78554850  -1.14998001   0.07553961
H    3.34897442  -0.20131158   1.17159001
O   -1.01801723  -1.33912839   1.02360872
H   -1.28983581  -2.18021371   1.39092601
H   -1.67987691  -0.71873099   1.32902757
O   -2.20701401   1.74096743   1.09340525
H   -2.83744404   2.25356616   0.58740885
H   -2.38758392   1.97055529   2.00495106
