16
Energy:   -378.67005345
Na   0.13132387   0.82639747  -0.30962234
O   -1.85025905   0.13032959   0.70803902
H   -1.80920141  -0.66181504   1.24381230
H   -2.77847048   0.36378204   0.69557578
O    1.29719270  -0.93650604   0.64033357
H    0.76793239  -1.70544250   0.85211672
H    2.17679902  -1.15924216   0.94515024
O    0.21705513   1.00959925  -2.63542283
H    0.94874463   0.82877373  -3.22547745
H   -0.54003238   1.10317716  -3.21360404
O    0.90538344   2.96458080   0.08133380
H    1.04066071   3.47633875   0.87885227
H    1.27493567   3.50555623  -0.61652621
O   -0.52348083  -2.89185224   1.22582535
H   -0.91178080  -3.54447481   0.64312581
H   -0.35695889  -3.36621439   2.04036991
