16
Energy:   -380.02638766
Na  -0.65541995  -0.21252804   0.64552338
O   -0.09737750  -1.95159686   2.09346673
H   -0.11504868  -2.01226623   3.04857866
H    0.19109071  -2.81694953   1.80332420
O    1.90314548   0.85034308  -2.20139076
H    2.75797986   0.49570831  -2.44577613
H    1.66980367   1.43342392  -2.92374813
O    0.98058159   1.39656552   0.87389026
H    1.61964648   1.42719918   0.16192854
H    1.17612914   2.16833206   1.40527468
O   -2.80052471   0.52406441   0.97293109
H   -3.47883584   0.11100452   1.50725999
H   -3.22166932   1.30380236   0.61116072
O   -0.13022072  -0.87711498  -1.51049047
H   -0.36807924  -1.48634522  -2.20941370
H    0.57326793  -0.34623223  -1.88398620
