16
Energy:   -379.47616353
Na  -0.24369582   0.75625416  -0.52174735
O    1.00333169  -2.39622431   1.72782548
H    1.74591092  -2.87610602   2.09459718
H    0.24763689  -2.95962733   1.89436149
O    0.91712257  -1.16282870  -1.24618122
H    1.25386149  -1.79477359  -0.61097700
H    1.27395474  -1.45298248  -2.08565334
O    0.47763194   0.29871255   1.61109225
H    0.70660056  -0.62105819   1.74461005
H    0.61463131   0.70668565   2.46608990
O    0.15307679   2.90100951  -1.24294399
H   -0.42197091   3.56888749  -1.61642892
H    1.03650760   3.24736433  -1.36872239
O   -2.54858793   0.63243512  -0.90605502
H   -2.97210290   0.06763721  -1.55248385
H   -3.27297083   1.02130618  -0.41587081
