16
Energy:   -380.43133684
Na  -0.17581953   0.98765991   0.00396481
O   -0.95905836   2.63669715   1.41177157
H   -0.78827443   3.56892667   1.27755970
H   -1.48830370   2.60195648   2.20859295
O    0.71298786   2.14239931  -1.83433766
H    0.28052162   2.46891748  -2.62338182
H    1.64005625   2.10009238  -2.06882897
O   -1.32642595  -0.92053250  -0.54424569
H   -2.16261818  -1.19524517  -0.92047350
H   -0.87720786  -1.73927612  -0.33426035
O    0.15435006  -3.15974935   0.01995302
H   -0.01509319  -3.71769742   0.77904115
H    0.22009529  -3.76873118  -0.71560836
O    1.41947399  -0.37923517   0.94628866
H    1.37949134  -1.29242779   0.66218923
H    1.96514703  -0.39618040   1.73253649
