16
Energy:   -378.70603673
Na  -0.56280936   0.18827144   0.65133725
O    0.39960323   1.26131298  -1.14215236
H    1.05436909   0.73433030  -1.60019467
H    0.45784102   2.12487771  -1.55092634
O   -0.75569357   1.41411727   2.62057894
H   -0.10807907   1.81144864   3.20277743
H   -1.60040294   1.66472065   2.99460550
O    0.78908322  -1.70211314   0.67169497
H    1.11151405  -2.23019321   1.40203849
H    1.23143587  -2.06095041  -0.09758508
O    2.19599285  -0.60295447  -2.16723445
H    3.14240533  -0.46978051  -2.11431976
H    2.05122575  -0.94920748  -3.04779290
O   -2.77665339  -0.29799410   0.18448474
H   -3.35156497  -0.98356056   0.52464229
H   -3.26150174   0.07952314  -0.54943259
