16
Energy:   -382.20997098
Na  -0.36867565  -0.11359593   0.85232571
O    0.31898715  -1.67512965   2.40811052
H    1.17094330  -2.09882361   2.51244650
H   -0.18411976  -1.95640810   3.17230796
O    1.33422078   1.26780142   0.08670705
H    1.85910811   2.02657002   0.34164892
H    1.62213652   1.06493435  -0.80333864
O    1.04797157   0.41960700  -2.81588359
H    0.65699294   1.11344528  -3.34687889
H    1.69364733   0.01110054  -3.39247454
O   -0.49716435  -1.15210457  -1.15767252
H   -0.02807851  -0.68002390  -1.84566247
H   -0.95122624  -1.85805605  -1.61777269
O   -2.25125166   1.03597495   1.71830650
H   -3.14784341   0.70936055   1.79365974
H   -2.29169314   1.92916524   2.06007753
