16
Energy:   -378.76579477
Na  -0.73115467  -0.19603394   0.62367827
O    2.22442358   0.81598710  -2.10402666
H    2.67051768   1.61432086  -2.38668390
H    2.59513311   0.12620288  -2.65448467
O   -2.07808342   0.78440262   2.24532588
H   -1.96481549   1.66343033   2.60686774
H   -2.80597443   0.41211956   2.74313291
O    1.52099111   0.05552565   1.04599927
H    2.17221179  -0.29919096   1.65124269
H    2.02174863   0.62374088   0.46067440
O   -0.43879326   0.72166507  -1.46130594
H    0.47852665   0.74157084  -1.73399586
H   -0.91207903   1.14002387  -2.18047792
O   -1.45282011  -2.38311229   0.47146677
H   -1.09603159  -3.22307923   0.76023889
H   -2.16430360  -2.61679934  -0.12469885
