16
Energy:   -380.98599870
Na   0.59670552  -0.69335534  -0.32865030
O   -1.44309860  -0.93453800   0.77755814
H   -1.84039846  -1.71161614   1.17066656
H   -2.00729504  -0.21162986   1.05199946
O    0.66017234   1.52892413   0.23774516
H   -0.12571390   1.81559664   0.70296935
H    1.26155255   2.27078069   0.30272629
O    2.55395847  -1.94653644   0.00320814
H    3.03083288  -2.52561453  -0.59134313
H    3.04081475  -1.99368793   0.82599581
O    0.23159180  -0.79563769  -2.63711955
H    0.47772172  -0.06429968  -3.20350865
H   -0.20008013  -1.41785688  -3.22255485
O   -1.85253399   1.97232034   1.47306913
H   -2.49539633   2.55633249   1.07071398
H   -1.90307503   2.16794911   2.40870091
