16
Energy:   -382.58502536
Na  -0.62311771  -0.45760645  -0.43458395
O    2.39261424   1.39671827   1.50985385
H    2.28196561   1.93647026   2.29257764
H    3.34077074   1.32142665   1.40232584
O    0.69127070  -0.78780981   1.39175039
H    0.94694001  -1.43480662   2.04921535
H    1.30271892  -0.06234504   1.51849339
O   -0.78203654  -2.20380247  -1.98289113
H   -0.08574990  -2.70021927  -2.41299244
H   -1.59124454  -2.62519285  -2.27245011
O    0.47914898   1.51708306  -0.95813298
H    1.19462323   1.77856407  -0.37851575
H    0.35264531   2.26859052  -1.53732655
O   -2.92815639  -0.05837867  -0.14340124
H   -3.48442853   0.63680804  -0.49483912
H   -3.47832056  -0.50306310   0.50142975
