16
Energy:   -379.20671591
Na   0.18865140   0.94715993   0.16917401
O    1.09082505   2.88019805  -0.63889867
H    1.28011091   2.96737695  -1.57313769
H    1.34681857   3.72226394  -0.26256876
O    1.52948259  -1.00967564   0.35609768
H    1.14211668  -1.80429537  -0.01099765
H    2.37925439  -1.29135130   0.69488751
O   -0.60271917   1.76951902   2.22224617
H   -1.16077671   2.51091329   2.45706134
H   -0.42483137   1.33018640   3.05385583
O   -1.40198429  -0.36609572  -0.97353823
H   -2.21180484  -0.30661844  -1.48037645
H   -1.17787464  -1.29658462  -0.98757780
O   -0.57170107  -2.99003305  -0.95209994
H   -0.71786996  -3.65701927  -0.28128262
H   -0.69026228  -3.45348979  -1.78118554
