16
Energy:   -378.55418982
Na  -0.85351457  -0.42029820   0.18855452
O    1.28161819  -1.36260390   0.30553989
H    2.03334614  -0.88170708  -0.04069008
H    1.66291890  -2.13254435   0.72747983
O    2.69172535   1.45700606  -0.80028137
H    3.33631956   1.91903645  -0.26431676
H    3.06572887   1.46013153  -1.68138491
O   -1.78313296   0.08582036   2.26307100
H   -1.45497407   0.03383686   3.16075765
H   -2.67491419   0.42188063   2.35263428
O   -2.28441446  -1.85196649  -0.96375835
H   -2.90820362  -2.50612641  -0.64880798
H   -2.46511802  -1.77971686  -1.90096593
O   -0.10163435   1.58665453  -0.72584467
H   -0.38987901   2.33635794  -1.24650931
H    0.85420713   1.63300558  -0.74706928
