16
Energy:   -378.77840584
Na  -0.87640178   0.32846995   0.07345588
O    0.32791559  -1.25089340  -1.03131632
H    1.27142851  -1.24551138  -0.87011382
H    0.18685672  -2.00358678  -1.60558709
O   -2.64526064  -0.65051863   1.21410067
H   -2.55208624  -1.13476799   2.03449871
H   -3.56518172  -0.38673071   1.19427671
O   -1.96746300   2.07855978  -1.06448593
H   -2.47406918   1.98576990  -1.87131433
H   -2.02244918   3.01034880  -0.85240675
O    1.05189357   0.84474901   1.35000812
H    1.85118599   0.32560641   1.26138286
H    1.31016867   1.59301785   1.88817127
O    3.01418255  -1.05795246  -0.45132269
H    3.54849468  -1.81329903  -0.20597810
H    3.56076835  -0.56629639  -1.06430728
