16
Energy:   -387.39959617
Na  -0.59901494  -0.57075550  -0.47214669
O    1.91807215   1.78096525   1.50894954
H    1.88781979   2.73700088   1.54517824
H    2.67396708   1.54423974   2.04636533
O   -0.66709051  -2.87872738  -0.66270883
H   -1.29945107  -3.40114532  -1.15609658
H   -0.07701153  -3.52285495  -0.27137993
O   -0.44876038   0.30341666   1.66589255
H    0.32727600   0.85256480   1.77740799
H   -0.87369960   0.31144607   2.52356034
O   -2.40181405   0.15005883  -1.74421915
H   -3.29277200   0.33178016  -1.44521557
H   -2.40131613   0.40601223  -2.66656370
O    1.42783079   0.46021201  -0.90454350
H    2.11210239   0.56095744  -1.56624932
H    1.73967559   0.97057313  -0.15720409
