16
Energy:   -379.01535216
Na  -0.06574553   0.19978758   1.00549842
O    0.62409940  -1.05316318  -2.94797712
H    1.30660560  -0.68985149  -3.51226583
H    0.11548225  -1.62419051  -3.52370990
O    0.93173744   1.95742098   2.14530541
H    0.51485802   2.37514092   2.89893227
H    1.83306858   2.27928723   2.16067203
O   -0.38778861   0.79505997  -1.18628985
H   -0.63579917   1.56089006  -1.70419610
H   -0.16338574   0.12860841  -1.83568766
O    0.95742865  -1.74534031   0.19495149
H    1.25440591  -2.59814100   0.51239022
H    1.23885991  -1.71837232  -0.71954346
O   -2.14022966   0.11574835   2.05360267
H   -2.94635670   0.47672134   1.68469952
H   -2.43664553  -0.47500776   2.74597302
