16
Energy:   -378.52876169
Na   0.02921318   0.92852879  -0.03932758
O   -1.84850661  -0.41829177  -0.33624034
H   -1.62353554  -1.32558642  -0.54224101
H   -2.80444691  -0.39263453  -0.37809377
O   -0.06887576   2.39548509   1.76668126
H   -0.85676462   2.63786258   2.25321609
H    0.65308823   2.74178556   2.29115798
O    0.07174768  -3.27668341   0.20999541
H   -0.11214493  -3.71580615   1.04040890
H    0.28345012  -3.98719417  -0.39547003
O    1.42646641  -0.88563307   0.06800549
H    1.05501378  -1.76668746   0.11270413
H    2.37338023  -1.02484979   0.05369562
O    0.41511822   2.41091978  -1.76094598
H    0.36103302   2.33541504  -2.71362939
H    0.65129033   3.32544489  -1.60570936
