9
Energy:    -60.58293515
O   -0.39158617  -0.78798675   1.62728237
H   -1.08963938  -1.35761728   1.95050770
H   -0.81013173  -0.25570831   0.95072408
O    1.48014503   0.21091528  -0.82326633
H    1.67916236  -0.29246397  -0.03381508
H    2.15871474  -0.04452236  -1.44818762
O   -1.25558321   0.58533235  -0.66436282
H   -0.33118283   0.40869819  -0.83905157
H   -1.34869328   1.52884192  -0.79608997
