9
Energy:    -60.30429749
O    1.10914711  -1.12041397  -0.57374200
H    2.03902103  -1.29869257  -0.71439437
H    1.06321285  -0.77477281   0.31769172
O   -1.37629680   0.52172264  -0.99550112
H   -0.59786280  -0.03499287  -1.01394547
H   -2.11065461  -0.09217231  -1.00463609
O    0.02107110   0.58994381   1.51982271
H    0.52134752   1.38282610   1.71293676
H   -0.53461138   0.83132866   0.77875444
