9
Energy:    -62.36049676
O    0.20017414   1.77644778  -0.06713297
H    0.16282277   2.53723545   0.51255560
H    0.24214621   1.02546470   0.52489288
O    0.20153937  -0.57738131   1.33150370
H    0.02012865  -0.94104032   0.46485837
H    0.88344560  -1.14436024   1.69174062
O   -0.33245708  -1.07553792  -1.23789201
H   -0.32418266  -0.18254512  -1.58246021
H   -1.09143527  -1.48573719  -1.65252500
