9
Energy:    -60.23457243
O   -0.90379410  -0.04020149   1.23216029
H   -0.50677738   0.49359230   1.92039990
H   -1.00563608   0.55881724   0.49254104
O    1.16476153  -1.34863622  -0.16207255
H    0.44635709  -1.11444498   0.42553393
H    1.82991921  -1.72882326   0.41173485
O   -0.42210168   1.33207113  -1.15620981
H   -0.82662720   1.15926866  -2.00634524
H    0.31188780   0.71935467  -1.11071447
