9
Energy:    -60.92308325
O    0.53183549   0.94881903  -1.25477226
H    1.03830039   0.97716898  -2.06651201
H    0.41378743   0.01551395  -1.07802915
O   -0.53824248   0.47279090   1.59632562
H   -0.16387115   0.96738376   2.32533580
H   -0.52584435   1.08426676   0.86000002
O    0.08285747  -1.57758693  -0.27123760
H   -0.78108487  -1.85327019  -0.57756131
H   -0.09948458  -0.94991325   0.42805417
