9
Energy:    -60.41198564
O    0.04493273  -1.49807533   0.79507517
H    0.29491598  -0.60919596   1.04733239
H    0.06512399  -1.99439298   1.61330066
O   -0.47856535   0.22098652  -1.64475164
H   -0.06310388  -0.56344342  -1.28657111
H   -1.32160179  -0.08528914  -1.97899201
O    0.44814451   1.36572210   0.85182194
H   -0.11669610   1.16647974   0.10516980
H    1.11892554   1.94880926   0.49644323
