9
Energy:    -65.43118761
O   -0.26676429   0.14623169   1.50741276
H   -0.32890714   0.81119949   0.82171024
H    0.40049442   0.48095025   2.10654642
O   -0.21890553   1.32831872  -0.99849500
H   -0.01015298   0.43015348  -1.25530897
H   -0.55315860   1.73498250  -1.79795188
O    0.49042186  -1.52868781  -0.47235759
H    0.25557950  -0.96621909   0.26568702
H    0.22879786  -2.40736689  -0.19720708
