9
Energy:    -61.16169127
O   -1.26511873  -1.23782513   0.16622971
H   -1.00154094  -0.48518281  -0.36319273
H   -1.44177918  -1.92961991  -0.47129905
O    1.07588064   0.09756457   1.09521687
H    0.39694126  -0.57702792   1.10929316
H    1.04853499   0.48387712   1.97057205
O    0.03787148   1.20966120  -1.23673861
H    0.50218435   0.84263394  -0.48445116
H    0.72968158   1.55802194  -1.79912231
