9
Energy:    -61.74535872
O    1.55159216  -0.09523098  -0.88249966
H    2.18207394  -0.49731280  -0.28495905
H    1.12207626   0.58104988  -0.35867513
O   -0.31390839   1.37704142   0.53990448
H   -0.81980098   1.88688746   1.17264578
H   -0.72133623   0.51092843   0.54899793
O   -1.05833010  -1.24050515   0.17460577
H   -1.77548584  -1.27192646  -0.45858630
H   -0.26481892  -1.27348702  -0.35970131
