9
Energy:    -62.72538163
O    1.02243346  -0.40411557  -1.11993915
H    0.39260028  -0.88347916  -0.58165246
H    1.05359849  -0.89076727  -1.94360821
O   -0.88127969  -1.16853339   0.65960334
H   -0.87248019  -1.46216983   1.57060941
H   -1.26516703  -0.29234354   0.69356966
O   -0.19270306   1.72149985   0.24028524
H    0.37662314   1.12286939  -0.24318254
H    0.39452370   2.17575780   0.84447585
