9
Energy:    -61.36386592
O   -0.77424630  -0.31280465  -1.20745977
H   -0.55215497   0.45902911  -0.68671037
H   -1.23380390   0.03686294  -1.97085432
O    0.70146215  -1.51677290   0.76429042
H    0.63452575  -2.46006890   0.61615527
H    0.21301271  -1.12490081   0.04035309
O    0.08940380   1.58818331   0.51287090
H    0.50826242   1.00196470   1.14305900
H    0.40446298   2.46032327   0.75023443
