9
Energy:    -63.44159451
O   -0.74149954  -1.05740677   1.15026735
H   -0.59998997  -1.97430415   0.91467006
H   -1.17983877  -0.67871863   0.38823989
O    1.39857305   0.45673927   0.35271048
H    0.77730049  -0.01449950   0.90785577
H    1.96921828   0.91694441   0.96818355
O   -0.82861016   0.63829151  -1.40076873
H   -0.75735319   0.97574589  -2.29367345
H    0.05586935   0.71666295  -1.04329737
