9
Energy:    -64.80284844
O   -0.27340326   1.59330559  -0.30365573
H   -0.33716848   2.12971659   0.48655253
H    0.46430054   1.00668504  -0.13661900
O    1.52831333  -0.47009249   0.20301681
H    2.08726630  -1.02425831  -0.34168832
H    0.66763315  -0.88733863   0.16604187
O   -1.14609275  -1.06672987  -0.10447886
H   -1.75863350  -1.11073065   0.62974837
H   -1.29163626  -0.20140059  -0.48691077
