12
Energy:   -100.58108989
O   -1.69859289   0.30974830   0.06724044
H   -1.12361026   1.06030001  -0.08208787
H   -1.48350085  -0.30129622  -0.63745230
O    0.45922299  -0.79542040   1.27723612
H   -0.42299348  -0.48886604   1.06759264
H    0.35740777  -1.27592927   2.09880580
O    0.03106467  -1.20948517  -1.50790542
H    0.41571412  -1.36655758  -0.64558013
H    0.46615088  -0.41770080  -1.82414797
O    0.85612533   1.54068318  -0.20175824
H    1.36639178   2.23969119   0.20720116
H    0.96893178   0.78918514   0.38027033
