12
Energy:   -101.21250766
O    1.32213953   0.20896501  -1.11432476
H    1.07133668  -0.45843632  -0.47565016
H    2.09756332  -0.15058714  -1.54522155
O   -1.65381828   0.10257067  -0.68805271
H   -1.03970146   0.24360260  -1.40860970
H   -1.42687959   0.77377894  -0.04446112
O    0.09206486  -1.38648332   0.77536672
H   -0.66572923  -1.05500861   0.29359449
H   -0.17041990  -2.26071653   1.06355052
O   -0.09514713   1.48949510   1.15641185
H    0.53845767   1.66164510   0.45989107
H    0.11293361   0.60480616   1.45684440
