12
Energy:   -100.93368385
O   -1.11761748  -0.69963163   1.35690257
H   -1.54369078  -0.09789275   0.74648982
H   -0.62275345  -1.29837594   0.79757557
O   -0.92958188   0.98263453  -1.11436314
H   -0.42666204   0.18434197  -1.27570894
H   -1.21672392   1.26500293  -1.98272330
O    0.89244223  -1.17412729  -0.70045386
H    1.69587971  -1.67358188  -0.84627976
H    1.15799947  -0.45400553  -0.12849596
O    1.10266490   0.97002927   0.98105578
H    0.47352207   0.47148736   1.50246456
H    0.56296671   1.48103207   0.37786937
