12
Energy:   -102.53510206
O   -0.98989497  -1.42084679  -0.89906561
H   -1.63495896  -1.85234680  -1.45936199
H   -0.60646454  -0.74146306  -1.45372830
O   -0.48373572  -0.78039346   1.63100599
H   -0.83833823  -0.96345802   0.76096216
H   -0.48762510  -1.62836255   2.07503882
O    0.88397988   1.36217971   0.98312864
H    0.70311661   2.02632474   1.64828403
H    0.41187086   0.58594201   1.28445894
O    0.74290524   0.87307940  -1.69139534
H    1.50284227   1.29643517  -2.09076665
H    0.71261635   1.22433329  -0.80148797
