12
Energy:    -97.64012400
O   -1.29226823   0.90388117  -1.28438168
H   -0.34461402   0.77662464  -1.23978198
H   -1.46210966   1.12316705  -2.20051455
O    1.36091975   0.51389036  -0.67549091
H    1.40179095  -0.44143306  -0.63168972
H    1.09257370   0.78314630   0.20298703
O   -0.63131410   0.56098160   1.43414938
H   -1.15321780   0.98455041   2.11564614
H   -1.12200180   0.71342378   0.62654872
O    0.67138409  -1.97392043   0.21724238
H    1.22451417  -2.52743675   0.76851241
H    0.19497433  -1.41951404   0.83522227
