12
Energy:   -101.54097191
O    1.48695128  -1.31274368  -0.22338339
H    1.66132641  -0.65140698   0.44628738
H    1.11111332  -2.04926718   0.25881035
O   -0.61089504  -0.32851317  -1.76725000
H   -0.61101537  -0.93642353  -2.50662597
H    0.12353810  -0.61262886  -1.22308266
O    0.36255564   0.10668650   1.91474565
H   -0.16100452   0.65538891   1.33075740
H   -0.19157623  -0.02125945   2.68468042
O   -1.16214898   1.60211891   0.06309308
H   -1.10597278   1.03622668  -0.70686931
H   -0.94462526   2.47493621  -0.26417630
