12
Energy:    -99.84616864
O    1.06070857  -1.31046890   0.54539718
H    1.42234879  -2.19545988   0.59271705
H    1.16964505  -1.05536964  -0.37073003
O   -1.02602968   1.35427427  -0.45686227
H   -1.91861436   1.69932469  -0.43530635
H   -0.75599658   1.32970824   0.46113037
O   -0.55714119   0.33334839   1.97020020
H   -0.62808253  -0.16356730   2.78523024
H    0.01119579  -0.19879292   1.41337835
O    0.45945307  -0.32583314  -2.11091732
H    0.95028449   0.24614271  -2.70096816
H   -0.15336451   0.25866929  -1.66477456
