12
Energy:    -97.64797641
O   -0.25592488   0.59132352   1.85440168
H   -0.68828622   1.33999855   2.26523159
H   -0.87202430   0.29675489   1.18366874
O   -1.60570184  -0.55734503  -0.24290496
H   -0.95476042  -1.25826448  -0.20799003
H   -1.25149896   0.06783537  -0.87529854
O    1.29690347  -1.02117754   0.24590620
H    0.88040443  -0.38841656   0.83103350
H    1.71259125  -1.65307384   0.83254286
O    0.27367239   0.88748418  -1.81556118
H    1.01786918   0.35290867  -1.53873630
H    0.60568753   1.39642270  -2.55514171
