12
Energy:   -116.61231060
O    1.55448395   1.06366445   0.38644146
H    2.36615373   1.20499956  -0.10084530
H    0.86009146   1.21737032  -0.25420309
O   -1.44148097  -1.16827388  -0.50438523
H   -1.44576890  -2.05703782  -0.85978939
H   -0.86114323  -1.21639532   0.25530174
O   -0.49485768   1.22265873  -1.39906161
H   -0.87679998   0.37440591  -1.17363073
H   -1.24729537   1.80602846  -1.49779932
O    0.38185711  -1.11804905   1.51700460
H    0.32690325  -0.95398964   2.45843778
H    0.87785532  -0.37538187   1.17252952
