12
Energy:    -97.66771113
O   -0.54667909  -1.57830166  -0.05726175
H   -0.03412787  -1.12589993  -0.72722873
H   -0.68406920  -2.45646635  -0.41248363
O    1.06279745   0.59663197  -1.10162936
H    1.91600023   0.90639210  -1.40548054
H    1.15295137   0.53982408  -0.15037914
O    0.84998215   0.21454272   1.57332769
H    0.19235216   0.88662604   1.75237704
H    0.34156902  -0.56741704   1.35818385
O   -1.63390136   1.07148951  -0.20721976
H   -1.65226460   0.12761484  -0.04912088
H   -0.81837456   1.21876310  -0.68623789
