12
Energy:    -98.23825497
O    0.37901086   0.26422932  -2.04609761
H    1.03210381   0.18556011  -2.74144832
H    0.67852563  -0.33925503  -1.36614953
O   -1.60549726   0.50382959  -0.05565241
H   -0.79957995   0.61300409  -0.56043957
H   -2.30109767   0.49458476  -0.71313735
O    0.33574447   0.42563649   2.08463101
H   -0.50245696   0.66092219   1.68677318
H    0.53317582   1.15217437   2.67572781
O    1.00139471  -1.28929704   0.05746196
H    0.82898222  -0.63850901   0.73788883
H    0.35927111  -1.98067546   0.21841226
