12
Energy:   -100.56318430
O   -0.63061018   1.43189507  -0.85603087
H   -1.01681493   1.86429680  -1.61767809
H   -0.72065430   0.49679579  -1.03964255
O   -0.56973049  -0.26055081   1.81393817
H   -0.73293069  -0.80780247   1.04574993
H   -0.93815913   0.59235873   1.58363944
O   -0.24468876  -1.34836742  -0.78909785
H    0.60073952  -0.97824898  -0.53513877
H   -0.04886789  -2.25555717  -1.02338995
O    1.70224483   0.22495858   0.26067866
H    1.22930384   0.94541478  -0.15585649
H    1.22971279   0.06863143   1.07830152
