12
Energy:    -99.27386303
O   -0.12424676  -1.36981660   1.39420085
H   -0.82957953  -1.67566242   1.96446032
H   -0.32838006  -0.44864567   1.23293848
O   -0.62212981   1.38538786   0.68454572
H   -0.84310684   0.93173597  -0.12884285
H   -1.10593563   2.21003379   0.63847125
O   -0.65250877   0.02635289  -1.72734440
H   -0.66535777  -0.27301846  -2.63643380
H    0.23174636  -0.17473733  -1.42093383
O    1.73812825  -0.22361817  -0.35500755
H    1.45337475  -0.89424151   0.26580774
H    1.56274834   0.60544573   0.09010681
