12
Energy:    -98.10291461
O   -1.89659210  -0.29465610   0.01243306
H   -2.69612139  -0.47139883   0.50816159
H   -1.24555179  -0.88759934   0.38766189
O    0.24521121  -1.58407544   1.28487634
H    0.79982221  -2.36418511   1.27666645
H    0.85900576  -0.85254436   1.21891893
O    1.85298236   0.95385591   0.54303158
H    1.89412106   1.82369196   0.94042898
H    1.46041310   1.10143232  -0.31739995
O   -0.16134208   1.08270408  -1.82928318
H   -0.82163162   0.62719757  -1.30701564
H   -0.31230080   0.77939333  -2.72451829
