91
Energy:   -776.12534849
C    2.05671402   3.60796274  -3.58946659
H    1.03736324   3.79238106  -3.85744805
H    2.43287632   2.78594315  -4.16190418
H    2.64204532   4.48063066  -3.79130083
C    2.13998523   3.26964192  -2.08939828
N    2.20198444   3.01774668  -0.97252924
C    4.32608707   0.34671725  -0.17446278
H    5.25024378   0.73768691   0.19699015
H    3.99328452   0.94116291  -0.99955424
H    4.47021560  -0.66309189  -0.49759055
C    3.26753990   0.38182619   0.94350200
N    2.47940342   0.40796639   1.77587760
C   -0.65420486  -2.03745423   6.45792535
H   -0.87013067  -2.95318813   5.94831016
H   -1.56949058  -1.57407191   6.76194505
H   -0.05439851  -2.24193418   7.32008507
C    0.11062271  -1.09210613   5.51296199
N    0.68007160  -0.38825149   4.80939382
C    1.88832182   5.08479842   1.67093244
H    2.06200661   5.98387636   2.22445988
H    1.08938377   5.24203905   0.97676209
H    2.77653191   4.81698535   1.13777385
C    1.50985985   3.94993789   2.64070465
N    1.22807771   3.10498265   3.36274414
C   -0.10801669  -5.23265917   0.25490404
H   -0.03904976  -6.12825356  -0.32652045
H   -0.53185880  -5.45973228   1.21077786
H    0.86915957  -4.81742205   0.38758325
C   -1.00366665  -4.21448646  -0.47498326
N   -1.67051876  -3.45641059  -1.01841753
C   -4.12574016   2.14389056   2.38915249
H   -3.86640435   2.80583345   1.58947960
H   -4.76873600   2.65113417   3.07774479
H   -4.63113087   1.28766391   1.99373466
C   -2.84616943   1.69346151   3.11813287
N   -1.89347085   1.35809661   3.66089190
C    3.52924442  -2.37946593  -4.07900608
H    3.36042362  -2.96287137  -3.19807599
H    4.55058516  -2.47866705  -4.38219138
H    2.88909243  -2.72494846  -4.86370114
C    3.22359278  -0.89978356  -3.78115185
N    2.99602123   0.20190723  -3.55938585
C    0.26026395   0.61040875  -5.94355667
H    1.30704222   0.47465450  -5.76826772
H    0.12022750   1.28872507  -6.75913981
H   -0.18648553  -0.33199167  -6.18271234
C   -0.40178234   1.18587810  -4.67780403
N   -0.89470590   1.61434119  -3.73539366
C   -1.19083990  -4.74097663  -4.16571574
H   -0.55986470  -5.45738947  -3.68247345
H   -1.42948999  -5.08310567  -5.15105475
H   -2.09215827  -4.62156783  -3.60156520
C   -0.45826882  -3.38932464  -4.25502704
N    0.08716365  -2.38295830  -4.32152336
C   -1.48467382   4.93922866   4.88170315
H   -1.04246268   4.01007994   5.17501551
H   -2.42576104   5.05834463   5.37674387
H   -0.83467502   5.74483928   5.15261306
C   -1.70217795   4.94559325   3.35715356
N   -1.86411967   4.95033198   2.22205709
C    0.45673509  -0.49122645  -1.33470893
H   -0.43266370  -0.53732859  -0.74162836
H    0.19590378  -0.52426771  -2.37190438
H    0.97728949   0.42017684  -1.12670353
C    1.36299901  -1.68906069  -0.99488717
N    2.03775370  -2.58090273  -0.74187443
C   -2.94114924  -2.40312827   2.05948029
H   -3.61481288  -1.85338913   2.68307018
H   -2.78291455  -3.37593459   2.47602411
H   -3.35976107  -2.49857518   1.07940217
C   -1.59682633  -1.65685429   1.97304496
N   -0.59591683  -1.10121938   1.90868992
C    2.48662648  -2.94345034   2.90075325
H    3.24366842  -3.69959136   2.90695255
H    2.73398828  -2.18523273   3.61406755
H    2.42477405  -2.50866311   1.92503125
C    1.13005476  -3.57220878   3.26950250
N    0.12002546  -4.04034803   3.54405307
C   -3.10657067  -0.83953048  -2.71157146
H   -2.12262508  -1.24295262  -2.82990079
H   -3.26561172  -0.06879676  -3.43653668
H   -3.82955257  -1.61576236  -2.85178680
C   -3.25326337  -0.25098989  -1.29604993
N   -3.36248274   0.18720534  -0.24212980
C   -1.73574413   3.44712232  -1.02778905
H   -2.52362119   2.86940212  -1.46412527
H   -1.04439545   3.74049706  -1.78993560
H   -2.14745810   4.31945822  -0.56473315
C   -1.00425377   2.60085411   0.03067775
N   -0.45962595   1.97076897   0.81875440
Na   0.37444802   0.91934277   2.81002750
