91
Energy:   -777.09128208
C    1.48392765  -3.42122955   5.07177860
H    2.32542069  -3.08871046   4.50062127
H    1.03536181  -4.26391094   4.58848174
H    1.80708562  -3.70267276   6.05221612
C    0.45329846  -2.28190735   5.17830745
N   -0.31405182  -1.43363018   5.25762303
C   -1.25949583  -3.37234315  -0.48190720
H   -0.43372948  -3.24793800   0.18707223
H   -0.90612506  -3.35535044  -1.49172869
H   -1.73818645  -4.30928913  -0.28726238
C   -2.26761695  -2.22734652  -0.27149209
N   -3.01820895  -1.37484449  -0.11482847
C   -0.56119572   1.13976131  -1.06084567
H    0.38737686   1.57680052  -1.29345473
H   -0.47492639   0.07330448  -1.07209456
H   -0.87386081   1.46207589  -0.08963357
C   -1.60059235   1.58176088  -2.10769382
N   -2.37447038   1.91084965  -2.88711984
C    5.93735252   0.03556757  -1.76195108
H    5.97164360  -0.47237712  -2.70307620
H    6.93396416   0.20067450  -1.40924152
H    5.44113944   0.97591259  -1.88204649
C    5.16779778  -0.82439777  -0.74222312
N    4.59482930  -1.46468106   0.01701070
C    1.79165554   1.50287860   4.73792537
H    2.32302082   1.63300981   5.65749972
H    0.76915379   1.26703342   4.94712935
H    1.83965615   2.40673055   4.16727076
C    2.42944106   0.35415450   3.93464300
N    2.90430137  -0.50112281   3.33656276
C   -1.88850772   0.53248837   2.87783391
H   -1.94647194   0.27637007   3.91511099
H   -2.81056973   0.28157753   2.39643544
H   -1.70893445   1.58269588   2.77926049
C   -0.73645177  -0.24928382   2.21965512
N    0.12130625  -0.83134876   1.72961109
C   -5.26304000   1.24370637  -0.79506761
H   -6.22620423   1.67645929  -0.62203651
H   -5.28048548   0.21110262  -0.51520294
H   -5.01537042   1.32790539  -1.83259804
C   -4.20815224   1.98586084   0.04637077
N   -3.42274035   2.53842858   0.67285989
C   -3.72063192  -1.17060084  -3.78800737
H   -4.15380616  -1.30762285  -2.81925290
H   -4.13561392  -1.88449402  -4.46848188
H   -3.93176766  -0.18119054  -4.13641527
C   -2.19604064  -1.36993061  -3.70146795
N   -1.06091314  -1.51834068  -3.63703542
C   -1.18948507   5.06300133   0.89119032
H   -1.75771704   4.65731319   0.08036990
H   -0.56814346   5.85562886   0.52983827
H   -1.85485428   5.44347782   1.63779633
C   -0.30828739   3.95849417   1.50368896
N    0.34780433   3.13613838   1.95972204
C   -1.80902477   5.41224028  -3.49081413
H   -2.25250271   6.17740427  -2.88852551
H   -2.52793503   4.64127952  -3.67435331
H   -1.48998673   5.83146731  -4.42213712
C   -0.59522883   4.81720871  -2.75309004
N    0.30849743   4.37418066  -2.20382092
C    0.80922813   1.61537176  -4.71615472
H    0.10646526   0.81116638  -4.65074646
H    1.14788302   1.71180410  -5.72655699
H    0.33871807   2.52604225  -4.40923676
C    2.01045634   1.32335057  -3.79780053
N    2.90482535   1.10592752  -3.11404410
C    2.35156060  -2.33843824  -3.66055533
H    3.12767447  -1.66939082  -3.96865110
H    1.50992434  -2.23288254  -4.31278648
H    2.71118711  -3.34532098  -3.70244826
C    1.92826979  -2.00412863  -2.21810534
N    1.61311053  -1.75521993  -1.14413576
C    3.08419699   3.57059519  -0.45753542
H    3.05156991   3.56519280  -1.52702430
H    4.04030881   3.92350736  -0.13164851
H    2.31839403   4.21585521  -0.08059452
C    2.85725268   2.14174630   0.07018337
N    2.68828233   1.07790335   0.46309399
C   -3.28339026  -2.78252700   3.63002281
H   -4.05647891  -3.42924662   3.98917161
H   -3.65908744  -2.19329039   2.81974450
H   -2.96184228  -2.13757364   4.42093441
C   -2.09278405  -3.62804666   3.14098974
N   -1.20632360  -4.25757448   2.77688239
C    1.48393643  -6.15271530   1.63629522
H    0.62350057  -6.27184408   2.26108209
H    2.29052651  -6.73888626   2.02451569
H    1.25187481  -6.47830437   0.64380428
C    1.89543010  -4.66900338   1.60676685
N    2.20180584  -3.56431242   1.58478164
Na   2.42081720  -1.23013691   1.08077670
