91
Energy:   -776.78946717
C    3.87202552   4.91969701  -2.18566530
H    4.27969613   4.12930310  -2.78062944
H    4.48975260   5.07380633  -1.32568701
H    3.83526050   5.81905882  -2.76419425
C    2.44913097   4.54106178  -1.73443756
N    1.38972131   4.25915064  -1.39847799
C    3.75486586   2.82378267   3.88533385
H    4.68185573   2.35025030   3.63763029
H    3.14248813   2.14199872   4.43765917
H    3.94593118   3.69306728   4.47925085
C    3.02706703   3.23545523   2.59210744
N    2.48518772   3.54196417   1.62924159
C    4.17853232  -2.80059327   2.04572828
H    5.23452069  -2.93429083   2.15487820
H    3.88743970  -3.05897859   1.04903313
H    3.66540391  -3.43069517   2.74183884
C    3.81617491  -1.32940871   2.32125156
N    3.54638335  -0.23404492   2.52639117
C    2.74810616  -1.79042166  -3.95770210
H    1.78842130  -1.39364398  -4.21552493
H    2.92688693  -2.68410686  -4.51829401
H    3.50507620  -1.06922703  -4.18524058
C    2.78255338  -2.11322801  -2.45230864
N    2.80820089  -2.35357201  -1.33147479
C    4.51641324   0.67184875  -0.65722036
H    5.01961810   1.15350544   0.15499382
H    4.89059228   1.05243575  -1.58460521
H    4.68944077  -0.38295607  -0.60877087
C    3.00460328   0.94899332  -0.56119156
N    1.87899204   1.15534005  -0.48969376
C   -0.51610103  -1.19806995  -0.03865924
H   -1.00896457  -0.31556990   0.31230995
H    0.49626670  -1.20288349   0.30773289
H   -1.02463764  -2.06266987   0.33384120
C   -0.53188616  -1.21690487  -1.57846314
N   -0.54363891  -1.23092833  -2.72491714
C   -5.36547141  -2.35001004   1.07130941
H   -5.03762339  -3.36742951   1.02362835
H   -6.39086697  -2.29126776   0.77128879
H   -5.26602137  -1.98985229   2.07395351
C   -4.50465656  -1.48858792   0.12868026
N   -3.86374078  -0.84721999  -0.57315000
C   -3.33313307   1.60813557  -2.69085926
H   -3.34034983   2.31202222  -3.49670769
H   -4.25078131   1.68100259  -2.14541339
H   -3.22896838   0.61805528  -3.08301972
C   -2.15193604   1.91516700  -1.75165466
N   -1.27248116   2.14376586  -1.05237414
C    0.48197805  -0.63701345   3.90887128
H    0.61273996  -1.52588146   3.32773861
H   -0.35550875  -0.75891555   4.56358864
H    1.36369604  -0.45624791   4.48748711
C    0.23011834   0.55757480   2.97018837
N    0.04259735   1.44700006   2.27129628
C    0.52927891   2.00216180  -4.18171732
H    0.36292724   2.19152160  -5.22160682
H    0.15992858   2.82485871  -3.60582737
H    0.01644206   1.10772940  -3.89555628
C    2.03839371   1.83287042  -3.92576234
N    3.16199827   1.70682529  -3.73519223
C   -3.21402004   6.14036100   0.75584990
H   -3.85505157   5.69329983   0.02501813
H   -2.88582692   7.09654017   0.40526501
H   -3.75004705   6.26182636   1.67390235
C   -1.99228624   5.23279073   0.99097266
N   -1.08264989   4.55706341   1.16603224
C   -3.38477812   1.32089015   2.21328996
H   -2.79810763   1.89095126   2.90303502
H   -2.75796074   0.61384988   1.71120120
H   -4.15457583   0.80104541   2.74439450
C   -4.02336142   2.26622723   1.17880982
N   -4.49881572   2.97007365   0.40859233
C   -3.13667470  -3.46768095  -2.98105365
H   -2.27215258  -3.50327323  -3.61052555
H   -3.50500021  -2.46402327  -2.93738828
H   -3.89485442  -4.10881377  -3.37981588
C   -2.75961420  -3.93822033  -1.56400810
N   -2.47887552  -4.28855828  -0.50895328
C   -2.09552623  -4.58848189   3.05571296
H   -2.16758761  -5.04054992   2.08858224
H   -2.85318707  -4.99117203   3.69500147
H   -1.13154318  -4.79145871   3.47336853
C   -2.28876183  -3.06613149   2.92644865
N   -2.43263451  -1.93267242   2.83020550
C    0.83897844  -4.99671460  -0.53588537
H    0.10968894  -5.77840778  -0.49124489
H    1.79531915  -5.41424082  -0.77249349
H    0.56067061  -4.29199537  -1.29140813
C    0.91274981  -4.28500276   0.82779496
N    0.96767594  -3.75510094   1.84311695
Na   0.47887032   2.91278890   0.40092851
