91
Energy:   -776.21982472
C   -1.27274068   4.99321358  -6.00763476
H   -1.30064648   4.32021927  -6.83901921
H   -0.58827614   5.78890574  -6.21567653
H   -2.24975984   5.39713761  -5.84277714
C   -0.81151641   4.23527039  -4.74890751
N   -0.46811397   3.67094723  -3.81172786
C    1.74966164   4.62986535   1.96349937
H    0.99988468   4.35039738   2.67387417
H    2.08222394   5.62586906   2.16911554
H    2.57743614   3.95561106   2.03470070
C    1.15876133   4.56901155   0.54267791
N    0.71880919   4.52370312  -0.51518826
C    0.43234275  -1.38438388   0.21168135
H    0.76403121  -0.39385615  -0.02013272
H   -0.34390533  -1.66871756  -0.46765095
H    1.25259276  -2.06549642   0.12126726
C   -0.10837154  -1.42048257   1.65318228
N   -0.51095791  -1.44735969   2.72644525
C    2.62824012  -4.05993958  -2.54099762
H    2.47609867  -5.11502592  -2.63344211
H    2.99256918  -3.83671829  -1.56001052
H    3.34316237  -3.73754354  -3.26890287
C    1.29389259  -3.32668376  -2.77219573
N    0.30041020  -2.78074148  -2.94433324
C    4.83974935  -3.95032193   0.90504985
H    5.17721446  -3.44899249   0.02205139
H    4.31135806  -4.83934298   0.63056250
H    5.68194668  -4.20907393   1.51221552
C    3.90240408  -3.01992469   1.69710088
N    3.20450792  -2.32720166   2.28681888
C   -4.69386865   3.03418277   0.42446675
H   -5.11373408   2.10074994   0.11251105
H   -5.45103604   3.78998258   0.40540696
H   -4.31058034   2.93830166   1.41884896
C   -3.55146787   3.42783934  -0.53028712
N   -2.70089856   3.72093455  -1.24114478
C   -3.89972768  -2.28808293   2.41986232
H   -2.93671183  -2.69314867   2.65099515
H   -4.48834289  -3.02971626   1.92145361
H   -4.38906946  -1.99309619   3.32453162
C   -3.73429809  -1.06225169   1.50249063
N   -3.61112825  -0.14956461   0.81946571
C   -2.98839578  -1.56443969  -2.35966808
H   -3.92063454  -1.43168627  -2.86780941
H   -3.17256795  -1.86115489  -1.34826322
H   -2.41682968  -2.32133428  -2.85496786
C   -2.20422513  -0.23909256  -2.37112996
N   -1.62037444   0.74768862  -2.37966385
C   -1.63621649   1.81735115   3.15867948
H   -2.42087836   2.53695333   3.26535020
H   -0.84472721   2.04899938   3.84042938
H   -2.01669762   0.84042444   3.37256588
C   -1.09843348   1.85430592   1.71610408
N   -0.69802959   1.88182042   0.64204112
C    3.76935258   0.82342997   0.51769945
H    3.97357913   0.45343859   1.50070407
H    2.79710760   1.26986843   0.49949251
H    4.50310262   1.55572814   0.25265352
C    3.81867351  -0.34056072  -0.48942176
N    3.85539518  -1.20720469  -1.23926927
C   -1.88199877   7.01884369   0.23496766
H   -2.86001947   7.42850768   0.09161105
H   -1.52398661   6.61817498  -0.69033822
H   -1.21870159   7.78833872   0.57084461
C   -1.94430218   5.89839757   1.28963291
N   -1.99068990   5.06417452   2.07487913
C    2.09464210  -0.57644444   4.93120006
H    3.07464440  -0.99993330   4.85941668
H    1.36556275  -1.32159871   4.69018657
H    1.92986346  -0.22564851   5.92854118
C    1.97065847   0.60064627   3.94596632
N    1.87834703   1.47704381   3.21241501
C   -1.32037756  -5.66946729  -1.74850267
H   -0.33610413  -6.03093922  -1.53532663
H   -1.32567073  -5.19314702  -2.70662066
H   -2.00799656  -6.48925364  -1.75393846
C   -1.73972074  -4.65488171  -0.66851776
N   -2.05194079  -3.89947663   0.13558010
C    0.36182150  -4.73336711   2.86514174
H   -0.66127336  -4.43885726   2.75817892
H    0.89682720  -3.97648375   3.39974023
H    0.41291097  -5.65542837   3.40559709
C    0.99077547  -4.91950879   1.47181185
N    1.45906029  -5.05809974   0.43441442
C    2.10388243  -0.05669301  -4.18253439
H    1.22585308  -0.58045744  -4.49818527
H    2.85409171  -0.76159779  -3.89065363
H    2.47161428   0.54187992  -4.98961729
C    1.75858819   0.85017621  -2.98672499
N    1.50150092   1.52538156  -2.09639055
Na  -0.51920754   2.74070821  -1.59854800
