91
Energy:   -776.44579627
C   -1.42522355   2.76660195  -5.31062594
H   -1.64411818   3.76032817  -4.97972787
H   -2.18813251   2.09992416  -4.96651880
H   -1.38963184   2.74643405  -6.37984322
C   -0.06338334   2.32492262  -4.74325426
N    0.95056859   1.99607229  -4.32082024
C    3.81002686   2.24504259   2.04157668
H    4.75259377   2.27769286   2.54694957
H    3.18978110   3.04356866   2.39164868
H    3.96623822   2.35021918   0.98827948
C    3.12129652   0.89739193   2.32633660
N    2.60850548  -0.10599525   2.53835330
C   -3.15308290  -3.98410223   1.75205517
H   -4.04510261  -4.19615115   2.30363134
H   -2.67467336  -4.90200067   1.48097245
H   -3.40257806  -3.43698871   0.86700260
C   -2.19870522  -3.14525567   2.62216994
N   -1.48812766  -2.52069629   3.27000994
C    2.92930597  -2.44423791  -0.25066506
H    2.24300330  -2.90512614   0.42865141
H    3.25016555  -1.50495933   0.14896472
H    3.77753341  -3.08183083  -0.38808620
C    2.23445616  -2.21510483  -1.60575981
N    1.71710890  -2.04450484  -2.61468945
C   -0.22465836   0.77882483  -1.21688698
H   -0.84558416   1.60812706  -0.94928812
H   -0.65399472   0.26685474  -2.05262379
H    0.75054439   1.13315279  -1.47828778
C   -0.11662875  -0.18786533  -0.02296917
N   -0.03619579  -0.90761010   0.86595690
C   -3.77773288   0.13062581   2.66029165
H   -3.04614017  -0.12998881   3.39632990
H   -4.00192843  -0.72696551   2.06098157
H   -4.66873659   0.46842061   3.14702171
C   -3.22562522   1.25383648   1.76297625
N   -2.81455597   2.09011787   1.09488414
C    0.46431789  -1.43073408  -5.65636920
H    0.80961466  -2.36816708  -5.27310728
H    1.22190646  -0.68792823  -5.51781200
H    0.24842006  -1.52970128  -6.69967774
C   -0.81228336  -1.00817696  -4.90581291
N   -1.76277101  -0.69356397  -4.34698965
C   -3.87474739   0.96419161  -2.19826363
H   -2.96604251   1.19803585  -2.71253251
H   -4.16850173   1.79834180  -1.59593405
H   -4.64342531   0.75092286  -2.91139040
C   -3.65349450  -0.26597665  -1.29863414
N   -3.48876166  -1.18189284  -0.62881910
C    1.96885864  -2.05337885   7.98488727
H    2.08171333  -1.16020562   8.56316539
H    2.90850693  -2.56191719   7.92701717
H    1.24642435  -2.69077621   8.45041105
C    1.49380564  -1.68958918   6.56587996
N    1.14010709  -1.41873124   5.50936453
C   -2.27760056   5.26397440   0.05508850
H   -3.09220848   4.82849166   0.59515229
H   -2.52162238   6.27240725  -0.20647531
H   -1.39967986   5.25661740   0.66672582
C   -2.01751416   4.44994169  -1.22604608
N   -1.82386801   3.84385734  -2.17990900
C    1.82403147   4.23997892  -1.90695113
H    2.37506489   5.15703102  -1.89028396
H    0.96256049   4.35281251  -2.53147930
H    2.44431818   3.45812302  -2.29275527
C    1.37807949   3.88300080  -0.47681356
N    1.04604798   3.61721436   0.58798886
C   -0.51731270   3.55346960   3.49945730
H    0.45621286   3.97675448   3.36537498
H   -0.94346380   3.92034690   4.40978437
H   -1.14268734   3.82942521   2.67625978
C   -0.40505056   2.01905422   3.56703429
N   -0.32146628   0.87661222   3.61734844
C    1.41643693  -6.12632895   2.57982739
H    2.32368815  -6.61396138   2.86967219
H    1.23165905  -6.30487492   1.54113708
H    0.60336927  -6.51260297   3.15828435
C    1.54682525  -4.61158148   2.82505996
N    1.64390529  -3.48378315   3.00764676
C   -1.38299121  -3.32610552  -2.09978370
H   -1.23622091  -2.26631615  -2.08546101
H   -2.43080643  -3.54143285  -2.07495446
H   -0.95626165  -3.73324158  -2.99255535
C   -0.70033042  -3.95552916  -0.87120724
N   -0.19205843  -4.42416367   0.04352378
C    3.93893471   0.50498738  -3.85139657
H    3.70090967   1.36729154  -4.43848754
H    3.33410240  -0.31935055  -4.16690246
H    4.97226611   0.25938604  -3.98103178
C    3.66479394   0.80382723  -2.36575140
N    3.46068369   1.02632709  -1.25962104
Na   0.60701781  -1.31118773   3.16211991
