91
Energy:   -776.47039787
C   -0.44365296   2.51384537  -5.77229501
H   -1.50587901   2.44589243  -5.88164943
H   -0.00648176   1.55004873  -5.93001777
H   -0.05449538   3.20401376  -6.49140770
C   -0.10413661   3.00546783  -4.35291627
N    0.14864874   3.37150309  -3.29612428
C    0.53438851   5.37813778   2.13970057
H    1.49497283   4.90785789   2.17155598
H    0.01597187   5.19288404   3.05721043
H    0.65775928   6.43260535   2.00637064
C   -0.27956558   4.80397007   0.96521762
N   -0.88559139   4.37647612   0.09076168
C   -2.51743640   1.88475373   3.13384450
H   -3.52110576   2.24352140   3.03985646
H   -1.90681195   2.64477581   3.57475640
H   -2.50675884   1.01363864   3.75508807
C   -1.96711226   1.52828671   1.74040465
N   -1.55737093   1.26288081   0.70292534
C    3.16228001  -4.61796676   1.48168295
H    3.70239563  -5.53872648   1.55500982
H    2.36872146  -4.61183145   2.19940594
H    3.82423745  -3.79980224   1.67486227
C    2.57432342  -4.47913639   0.06512615
N    2.13656301  -4.37577087  -0.98956478
C    3.95690702  -2.55643801  -3.35784719
H    3.60056251  -2.12744131  -4.27101782
H    3.50261401  -3.51426184  -3.21262165
H    5.01972185  -2.66967352  -3.40786166
C    3.59395954  -1.63234610  -2.18059476
N    3.32372865  -0.94431767  -1.30407681
C    0.08417041  -2.21419009  -3.29121107
H    0.60283433  -2.18147565  -4.22652796
H   -0.88927201  -2.63354935  -3.43765815
H    0.63289941  -2.81925637  -2.60005958
C   -0.05104830  -0.78686490  -2.72902008
N   -0.15172477   0.27584358  -2.31044334
C   -3.50391055  -1.97951245   1.51538008
H   -3.34805503  -1.00617821   1.93158880
H   -2.97680748  -2.70539813   2.09860509
H   -4.54937386  -2.20722993   1.52247343
C   -2.98217383  -2.00791049   0.06673094
N   -2.59371712  -2.02905412  -1.01185419
C   -4.82132884   0.54000517  -1.89016010
H   -5.67075849   0.89545460  -2.43516024
H   -5.06209837   0.48745658  -0.84892632
H   -4.55260071  -0.43350090  -2.24367136
C   -3.63902251   1.50517710  -2.09557398
N   -2.75874170   2.22379148  -2.24851396
C    0.10509496  -3.53551205   4.65738486
H   -0.35667001  -4.38363936   4.19656673
H    0.05283298  -3.63522757   5.72144529
H    1.12972224  -3.47876178   4.35437095
C   -0.62978913  -2.25300261   4.22527967
N   -1.17694374  -1.29811603   3.90355771
C    3.75144905   1.49619014   1.19133915
H    4.06261180   0.52301418   0.87352398
H    3.46587671   1.46047641   2.22190795
H    4.55957654   2.18672265   1.06888958
C    2.55151636   1.95438729   0.34174106
N    1.65811193   2.29553589  -0.29082334
C   -4.12227427   5.30736429  -0.58957235
H   -3.54343483   5.08163034  -1.46071486
H   -3.55801182   5.94531777   0.05813309
H   -5.02529488   5.80254852  -0.87982302
C   -4.46781246   4.00137885   0.14975531
N   -4.72508135   3.02901332   0.70021835
C    1.34995874   0.62809451   5.37380171
H    0.40984675   0.27492736   5.74307475
H    1.85244280   1.17586202   6.14345073
H    1.95248762  -0.20501122   5.07750308
C    1.11262424   1.54706660   4.16105167
N    0.93591791   2.23128309   3.25810415
C   -1.23383066  -5.38130029  -0.97507159
H   -0.32636595  -5.62215054  -1.48829586
H   -1.79020555  -4.67001990  -1.54902827
H   -1.81671864  -6.26918319  -0.84543882
C   -0.90021397  -4.78047932   0.40308445
N   -0.65182118  -4.33314080   1.42918426
C    0.62662433  -1.27740083   0.73240739
H    0.75777911  -2.09537550   0.05519544
H    0.75322662  -0.35458402   0.20583347
H   -0.35667836  -1.31632636   1.15252608
C    1.67086953  -1.37227161   1.86030433
N    2.44835755  -1.44290723   2.70007486
C    3.57281052   2.11234498  -3.25398072
H    4.35408280   2.57358849  -3.82122690
H    3.99465740   1.61004715  -2.40861619
H    2.88627196   2.86110247  -2.91793591
C    2.82931928   1.09377961  -4.13791815
N    2.27575626   0.33541140  -4.79604974
Na  -0.56930673   2.36086803  -1.21699668
