91
Energy:   -777.80409651
C    4.33703807   3.20626443  -3.40322877
H    4.08236963   2.26660833  -3.84717760
H    5.30428800   3.13661845  -2.95103842
H    4.34967550   3.96526164  -4.15732599
C    3.29326312   3.56651700  -2.32975221
N    2.51612522   3.83474140  -1.53050011
C   -1.89867242   3.49136267   3.29928260
H   -2.41150138   2.56801904   3.12798410
H   -2.60404142   4.29594099   3.30200026
H   -1.39909085   3.45182279   4.24466820
C   -0.86440015   3.71920422   2.18126243
N   -0.09433743   3.88884260   1.34884559
C    1.87444967  -0.06251127   4.08784651
H    2.54414075   0.43451095   3.41748620
H    2.09175783  -1.11016747   4.09747576
H    1.99550098   0.33593002   5.07348854
C    0.42360781   0.15653285   3.62021675
N   -0.65660990   0.31962116   3.27204515
C    5.54429108  -2.17006242  -1.25088938
H    5.89845972  -2.09580247  -0.24393843
H    6.37180408  -2.33540709  -1.90875142
H    4.85823392  -2.98751704  -1.32830135
C    4.83096104  -0.86244260  -1.64190176
N    4.29985440   0.11113978  -1.93302825
C    3.70823354  -4.28702507   2.12902334
H    3.22575243  -4.66443296   1.25171185
H    3.10849217  -4.50542109   2.98780885
H    4.66674867  -4.75034024   2.23620021
C    3.88627995  -2.76268261   2.00143210
N    4.01884360  -1.62774035   1.90643461
C   -2.81381005   5.97446140  -0.89693209
H   -2.51717467   6.96358795  -1.17717539
H   -2.87681060   5.90959773   0.16923991
H   -3.76945893   5.75401349  -1.32476035
C   -1.77464768   4.96149217  -1.41232992
N   -1.00094406   4.20729054  -1.79606703
C   -2.41623277   1.43836478  -3.72833418
H   -1.71351798   2.01067434  -3.15951621
H   -2.76161539   2.01976304  -4.55754224
H   -1.94313606   0.54890142  -4.08879713
C   -3.61143169   1.05804961  -2.83476834
N   -4.50131161   0.77488769  -2.16946795
C   -4.00136845  -2.75238570  -2.06667050
H   -4.07184640  -3.64788076  -2.64806679
H   -4.70738269  -2.03497580  -2.42966639
H   -4.21380327  -2.97486136  -1.04184119
C   -2.57805028  -2.17587655  -2.18244007
N   -1.51832521  -1.74663928  -2.26863578
C   -3.17521007  -0.23966044   1.00328479
H   -4.08131536  -0.23667519   0.43419387
H   -3.36983925   0.13687415   1.98575121
H   -2.80064884  -1.23958265   1.07226709
C   -2.13006159   0.65325678   0.30904889
N   -1.35190104   1.31807424  -0.20784130
C    0.74064318  -1.44315012   0.26279866
H    0.58697920  -0.58481522  -0.35732130
H    1.27013143  -1.15442953   1.14664350
H   -0.20619533  -1.86085052   0.53468521
C    1.56247830  -2.49287810  -0.50808279
N    2.17437190  -3.27444829  -1.08203907
C   -6.48805007   2.54083910  -0.17752994
H   -6.58160498   2.85017421  -1.19755908
H   -7.27845939   2.97272031   0.40007790
H   -6.54723305   1.47394735  -0.12150808
C   -5.13062068   3.00956913   0.37859742
N   -4.11995281   3.35855994   0.79265951
C    4.77754612   1.71867564   1.10748559
H    5.12454701   0.84258735   1.61439769
H    5.00006524   2.58349408   1.69695434
H    5.26558197   1.79856932   0.15862464
C    3.25545355   1.61990845   0.89516685
N    2.12218645   1.54637179   0.73708589
C   -0.20490575  -5.56342832   0.03842746
H    0.60215522  -5.42130446   0.72643443
H    0.13539590  -5.36506516  -0.95643230
H   -0.55369023  -6.57302211   0.10142620
C   -1.35426333  -4.60041301   0.38939563
N   -2.21001229  -3.88340433   0.65070739
C   -1.90779908  -2.97832040   4.02031947
H   -1.95410357  -3.33949928   5.02645360
H   -2.61359656  -3.51058680   3.41745839
H   -2.14142243  -1.93424842   4.00505789
C   -0.48908895  -3.19511064   3.46187201
N    0.56720523  -3.35652083   3.04608250
C    1.53004730  -1.06117821  -3.85274500
H    1.35640518  -0.92332245  -4.89952310
H    0.91922655  -1.86237472  -3.49235458
H    2.56086603  -1.29766221  -3.69030378
C    1.17547838   0.23389912  -3.09865242
N    0.91148570   1.19814305  -2.53719622
Na   0.54107496   2.72043706  -0.67987682
