91
Energy:   -780.97306491
C    1.37464430   5.70194722  -5.02598211
H    1.67315600   6.60192878  -4.53017556
H    0.52455053   5.90068996  -5.64464276
H    2.18083233   5.34424605  -5.63179547
C    1.00820140   4.63542596  -3.97724382
N    0.73536800   3.84135241  -3.19641049
C    0.07623854   4.79690348   2.80844797
H    0.02409344   5.80528374   3.16249647
H    1.00337966   4.35899767   3.11430240
H   -0.73636836   4.23307918   3.21670192
C   -0.01355534   4.78733224   1.27109784
N   -0.08041096   4.78020602   0.12647078
C    0.51794756  -1.41270773   0.14147465
H    1.51365278  -1.77492006   0.29071778
H    0.55306279  -0.38636757  -0.15901144
H    0.03841895  -1.99117340  -0.62031854
C   -0.27550200  -1.53599740   1.45556653
N   -0.86626126  -1.62779216   2.43396766
C    3.27661200  -4.20930023  -2.59281812
H    3.06811110  -5.16778142  -2.16533552
H    3.86897502  -3.63582036  -1.91081667
H    3.81217242  -4.33684182  -3.51031868
C    1.95332846  -3.47162029  -2.86913133
N    0.96808372  -2.92238404  -3.07485907
C    4.92668096  -3.14184178   1.08203314
H    5.26091489  -2.41831586   0.36810170
H    4.53787103  -3.99631226   0.56860726
H    5.74837285  -3.43992846   1.69917645
C    3.82260556  -2.52435643   1.96028672
N    3.00057124  -2.06461052   2.61418643
C   -4.88213634   2.33340157  -0.94737827
H   -5.05774445   1.39803605  -1.43641131
H   -5.68998832   3.00286310  -1.15736762
H   -4.81435732   2.17644589   0.10887454
C   -3.56423775   2.94200449  -1.46152396
N   -2.58300234   3.39513703  -1.84432879
C   -4.07731419  -2.78154419   1.50979344
H   -3.16657191  -3.02763957   2.01465553
H   -4.39650288  -3.61701602   0.92242261
H   -4.83147580  -2.54329933   2.23047280
C   -3.84327979  -1.56778824   0.59130315
N   -3.66903054  -0.66409177  -0.09255461
C   -2.10912173  -1.45861259  -2.96220251
H   -1.65801741  -2.01248262  -3.75884112
H   -3.10306598  -1.17751552  -3.24141275
H   -2.14411149  -2.06503805  -2.08133761
C   -1.27747745  -0.19322187  -2.68157090
N   -0.65828047   0.74891904  -2.47262791
C   -2.63599119   1.31014492   2.89461580
H   -3.52936457   1.89881116   2.87860837
H   -2.04317094   1.58456368   3.74205758
H   -2.89303148   0.27352331   2.95976961
C   -1.83347206   1.55990835   1.60419677
N   -1.23596009   1.74586857   0.64342114
C    3.58607584   1.29308637   1.46231710
H    4.41209490   0.81615731   0.97741365
H    3.10433896   0.59534370   2.11499147
H    3.93971415   2.12770644   2.03086648
C    2.58159026   1.78250746   0.40256444
N    1.83370508   2.14690370  -0.38646960
C   -3.27560542   6.56784537   0.02056304
H   -4.23557745   6.78564880  -0.39885983
H   -2.58797922   6.33354263  -0.76503961
H   -2.92140500   7.41991289   0.56224754
C   -3.39341505   5.36524963   0.97527995
N   -3.48112967   4.46986244   1.68611009
C    1.15326384  -0.58615571   5.09735223
H    2.15928563  -0.94621972   5.04101165
H    0.48216333  -1.34869808   4.76111966
H    0.92258826  -0.32922871   6.11010905
C    1.00322770   0.65977766   4.20474976
N    0.89151898   1.58743170   3.54016664
C   -0.62279554  -5.89572180  -2.09982291
H    0.35642881  -6.17220152  -1.76879602
H   -0.55690916  -5.43640359  -3.06397272
H   -1.23804213  -6.76893419  -2.16203904
C   -1.24147968  -4.90209768  -1.09905268
N   -1.70211814  -4.16229936  -0.35393375
C    0.45811877  -4.78207290   2.64589297
H   -0.57288457  -4.60434683   2.42151441
H    0.83234035  -3.98727965   3.25676202
H    0.55430112  -5.71012007   3.16970256
C    1.26496430  -4.84607965   1.33573900
N    1.86569746  -4.89373559   0.36026981
C    2.59811564   0.34193329  -3.43780906
H    3.31535465   0.43597911  -4.22624026
H    2.26048233   1.31411429  -3.14494911
H    1.76564076  -0.23662726  -3.78008435
C    3.24990986  -0.35994286  -2.23193420
N    3.73520029  -0.88252155  -1.33410555
Na  -0.29582135   2.81698557  -1.29104493
