91
Energy:   -777.37560838
C    2.65109366   5.46494446   0.99631251
H    2.57970541   5.28375172   2.04844039
H    1.79350700   6.01549139   0.67021086
H    3.53658218   6.02939526   0.79087524
C    2.71368166   4.12096092   0.24705221
N    2.76028127   3.12030409  -0.31080614
C    1.98430944  -4.60754294  -2.89609244
H    0.96820823  -4.52058213  -2.57224628
H    2.58516714  -4.97503602  -2.09060008
H    2.03891467  -5.28720556  -3.72069906
C    2.50335988  -3.22557762  -3.33467935
N    2.88981654  -2.19664162  -3.66122723
C   -3.80970206  -2.85469139  -2.77411395
H   -4.10237325  -3.78544483  -3.21336534
H   -3.92448911  -2.06971825  -3.49212522
H   -4.42593769  -2.65252767  -1.92306602
C   -2.33634549  -2.93584150  -2.33339283
N   -1.23936456  -2.99626145  -2.00525593
C   -5.47597313   1.13084807  -1.73685503
H   -6.19891295   1.05259873  -2.52179786
H   -5.49823251   2.11970798  -1.32873779
H   -5.70575644   0.42260076  -0.96842515
C   -4.07272465   0.83959571  -2.30047349
N   -3.02794237   0.62274509  -2.72011305
C   -5.34567131   1.29842587   2.48920321
H   -5.98903686   1.52475970   3.31367513
H   -5.63054010   0.35981853   2.06169281
H   -5.42957299   2.06726997   1.74978564
C   -3.88894943   1.21700634   2.98208479
N   -2.80435379   1.15638580   3.34905752
C    4.43072091   0.77265517  -4.79368369
H    5.45647872   0.93313060  -5.05246689
H    3.83587173   1.57378021  -5.18001544
H    4.09764757  -0.15347683  -5.21349408
C    4.28991100   0.72160699  -3.26098455
N    4.18507161   0.68359931  -2.11982037
C   -0.06451653  -0.52363096  -4.25417800
H   -1.07931080  -0.23937733  -4.43936074
H   -0.02312994  -1.56737399  -4.02225831
H    0.52526915  -0.32816820  -5.12529582
C    0.48761338   0.28814721  -3.06768368
N    0.89869919   0.89255296  -2.18428473
C   -2.69969963   4.68019541   3.39274726
H   -2.79481365   3.97507568   4.19190911
H   -3.44985821   4.48626189   2.65481028
H   -2.82364409   5.67174641   3.77532204
C   -1.30474908   4.54706754   2.75400635
N   -0.26614499   4.44794778   2.27843471
C   -2.52857550  -2.18843385   4.06794499
H   -2.82032664  -1.37660845   4.70097024
H   -2.62368057  -3.11005409   4.60317413
H   -3.15902101  -2.21119540   3.20369996
C   -1.06441887  -1.99765138   3.63039795
N    0.02571230  -1.85560516   3.30462429
C    0.58463275   1.55184280   4.13352349
H    0.59153229   0.61288562   4.64656540
H   -0.37925137   2.00561582   4.23310532
H    1.32722922   2.19523519   4.55719295
C    0.89319192   1.32414079   2.64203328
N    1.12292825   1.15460630   1.53155103
C   -0.95891420   3.42718436  -0.96125753
H   -0.76586082   4.47713161  -1.03365461
H   -0.97402244   2.99887990  -1.94167893
H   -0.18963315   2.96228450  -0.38076301
C   -2.32221424   3.20159130  -0.28146288
N   -3.33725309   3.03362702   0.22467514
C    3.75875761  -2.13260862   3.06681917
H    3.86739300  -3.07916593   2.57986147
H    2.78293644  -2.06450214   3.50044765
H    4.49771745  -2.03985368   3.83508602
C    3.94330741  -1.00179189   2.03784157
N    4.08071313  -0.15984744   1.27172098
C    5.87598546  -2.18377427  -1.39376967
H    5.49620566  -2.01208498  -2.37925953
H    6.86085899  -2.59704217  -1.45805710
H    5.91200434  -1.25766434  -0.85905280
C    4.95326094  -3.16898941  -0.65246636
N    4.26625060  -3.90252686  -0.10053235
C    0.86450861  -3.93689317   0.64337225
H    0.85177653  -3.90597200   1.71284968
H    1.53708712  -4.70226926   0.31666645
H   -0.11974981  -4.14848354   0.28093059
C    1.33142022  -2.57529272   0.09598047
N    1.67905714  -1.56151929  -0.31157760
C   -1.54929511  -0.30730700   0.32289698
H   -1.27939778  -0.24321350  -0.71051854
H   -0.84549857  -0.92756475   0.83753262
H   -1.54404736   0.67186159   0.75429057
C   -2.95824175  -0.91611811   0.44866815
N   -4.00726657  -1.36940565   0.54231050
Na   2.52203673   0.71527298  -0.39070390
