91
Energy:   -777.18046912
C   -0.09728657   2.66771285  -5.68828421
H    0.31133932   3.53045667  -6.17160414
H   -1.02479844   2.92613502  -5.22155216
H   -0.26484267   1.89866243  -6.41311903
C    0.89067863   2.16092872  -4.62118786
N    1.62626362   1.78360491  -3.82668612
C    0.83641414   1.50448395   3.38439937
H    0.75402445   2.49290521   3.78581629
H    1.42525966   0.90021781   4.04244379
H   -0.13957080   1.07721227   3.28544783
C    1.51218626   1.56653970   2.00198079
N    2.01532933   1.61274303   0.97270732
C   -0.87401619  -0.71293110   0.73905429
H   -0.70439844  -1.18428211   1.68454793
H   -1.11069495   0.31922997   0.89243548
H    0.00789333  -0.79116062   0.13820920
C   -2.04679103  -1.40748758   0.02226248
N   -2.91997520  -1.92461644  -0.51142160
C    3.10432796  -2.96723116  -2.61474963
H    2.34616906  -3.71359315  -2.72893817
H    3.84683380  -3.31530490  -1.92741504
H    3.55953061  -2.77315846  -3.56344633
C    2.47170403  -1.67137913  -2.07423646
N    2.00068675  -0.70655840  -1.67179984
C    2.22692101  -3.85041823   1.32089196
H    2.37514987  -3.58201876   0.29576265
H    1.34586144  -4.45122009   1.40847191
H    3.07280165  -4.40473175   1.67035091
C    2.06421332  -2.57420791   2.16730405
N    1.94307004  -1.62401131   2.79749632
C   -2.35697122   3.60741976  -1.63893985
H   -1.92630571   4.54812995  -1.91187161
H   -2.88944217   3.71302727  -0.71686565
H   -3.03144789   3.28804035  -2.40573651
C   -1.23970329   2.56117016  -1.46960544
N   -0.40784653   1.78218977  -1.34352827
C   -4.54767913  -1.49717069   2.56495870
H   -5.32161722  -1.65996591   3.28566511
H   -4.16154402  -2.43970076   2.23718463
H   -4.94675916  -0.96442812   1.72721198
C   -3.41515378  -0.67307811   3.20516005
N   -2.57193717  -0.05950374   3.68181905
C   -5.25503363   0.28553318  -1.96081338
H   -6.31301504   0.21839919  -1.81566330
H   -4.85568613  -0.69235817  -2.13154464
H   -5.04987523   0.90732823  -2.80708759
C   -4.60236674   0.89466951  -0.70599114
N   -4.11642658   1.34819920   0.22828106
C   -1.14535217  -1.44844724  -3.42787431
H   -0.52642334  -1.30748791  -2.56650462
H   -0.53503848  -1.71176182  -4.26637400
H   -1.84788589  -2.23279898  -3.23777483
C   -1.90342044  -0.14346464  -3.73439172
N   -2.46783672   0.82815422  -3.96260786
C    4.97347840   0.15747504   2.03005949
H    4.81258129   1.10980517   1.56953846
H    5.93199451   0.14860217   2.50552477
H    4.21149322  -0.01890325   2.76024329
C    4.92219225  -0.94654722   0.95763021
N    4.88400739  -1.76854198   0.15915786
C    1.21885188   5.83956847   0.75652937
H    0.20676845   6.16575678   0.63741387
H    1.87475796   6.68283576   0.69664129
H    1.33145405   5.36713158   1.70995647
C    1.56941868   4.83638078  -0.35806355
N    1.83043160   4.08946195  -1.18792864
C   -3.36110733   3.18685403   3.15336316
H   -3.07419262   2.75226603   4.08808954
H   -4.00499606   2.51206726   2.62898808
H   -3.87756705   4.10689891   3.33136843
C   -2.10401346   3.45934802   2.30656802
N   -1.16804993   3.66223218   1.67609055
C   -1.96831351  -5.31644259  -0.19745033
H   -1.67940497  -5.66585581   0.77174647
H   -2.19486801  -6.15280293  -0.82520309
H   -2.83309451  -4.69262636  -0.10853329
C   -0.81341649  -4.50764267  -0.81684969
N    0.04645684  -3.90545437  -1.27802066
C   -0.61531021  -2.63765555   5.12262852
H   -1.35849820  -1.93482213   5.43663007
H    0.33249091  -2.14632273   5.05076627
H   -0.55186890  -3.43239106   5.83625990
C   -1.00110892  -3.21253823   3.74703073
N   -1.28835359  -3.64056452   2.72283566
C    6.51976164   0.10565189  -2.47907938
H    6.48523261   0.03378960  -3.54610503
H    6.50041144  -0.87638032  -2.05465343
H    7.41948742   0.60402766  -2.18409767
C    5.30237275   0.90518504  -1.97876843
N    4.39597139   1.50047380  -1.60626419
Na   2.00503273   1.69106347  -1.43629094
