91
Energy:   -777.55061632
C    3.55557358   3.35466379  -0.15429254
H    4.06056842   3.81026735  -0.98031057
H    4.23155648   3.26212973   0.66995479
H    2.72300505   3.96195144   0.13368392
C    3.05412389   1.95807237  -0.56621562
N    2.68077181   0.91824658  -0.87291108
C    4.40222522   0.82220421   3.48143981
H    5.33097988   0.78501489   4.01146991
H    3.62207049   0.43193204   4.10107303
H    4.17915284   1.83639540   3.22345910
C    4.50941006  -0.02224944   2.19808116
N    4.58921404  -0.65098357   1.24256231
C   -3.91651794  -2.00379916   2.16442936
H   -3.93558630  -1.54376077   3.13029749
H   -4.63725485  -2.79395631   2.13142818
H   -4.15202731  -1.27479878   1.41744015
C   -2.51279145  -2.57789153   1.89690386
N   -1.46765327  -3.00532940   1.69771897
C   -1.25978553  -3.85096222  -1.57683337
H   -2.19698518  -3.35627240  -1.42905319
H   -1.14641084  -4.62553942  -0.84739836
H   -1.23257413  -4.27788491  -2.55759616
C   -0.11325548  -2.83368228  -1.42780198
N    0.74038826  -2.07627112  -1.31684133
C    5.52078502  -3.63650868   3.24988848
H    5.55301119  -3.45898486   2.19520988
H    5.52132124  -4.69048862   3.43434741
H    6.37760302  -3.19301092   3.71256737
C    4.24045197  -3.01337117   3.83644362
N    3.28718581  -2.54941698   4.27316058
C   -0.89533267   0.81195747  -0.23613986
H   -0.76382197   0.71901545   0.82167245
H   -1.09069618   1.83465236  -0.48277191
H   -0.00636807   0.48809104  -0.73589137
C   -2.08287897  -0.06006762  -0.68436528
N   -2.96706118  -0.70932993  -1.01808947
C   -4.64986311   2.64914588   2.76951949
H   -5.40427053   2.21884818   2.14452867
H   -4.36216588   3.60200223   2.37684383
H   -5.03526496   2.77316273   3.75996602
C   -3.42345659   1.71855884   2.80869594
N   -2.51034119   1.02569449   2.83786458
C    0.89917900   1.07027353  -3.75473415
H    1.02449502   0.16185274  -3.20340144
H    1.52770441   1.82965856  -3.33857399
H    1.16709987   0.90653382  -4.77762554
C   -0.57139755   1.52043721  -3.67500151
N   -1.66630863   1.85560452  -3.61563695
C   -3.32427134  -1.21375604  -4.44227995
H   -3.82417335  -1.62575715  -5.29389797
H   -3.42132979  -0.14821825  -4.45267064
H   -3.76370191  -1.60322050  -3.54778719
C   -1.83264034  -1.59382331  -4.48903278
N   -0.72205326  -1.87680068  -4.52384239
C    1.22431300  -4.86125653   2.39626051
H    0.96712455  -4.16452634   3.16653405
H    1.72229778  -5.70364219   2.82903835
H    0.33469306  -5.18897748   1.90020163
C    2.15813567  -4.17994713   1.37871802
N    2.85340909  -3.67268131   0.62111138
C   -1.63450128   5.26719080  -2.50918679
H   -1.26383078   6.15321498  -2.98084844
H   -2.36449760   5.53344734  -1.77358369
H   -2.08399721   4.63306190  -3.24453232
C   -0.47040053   4.52143818  -1.83071611
N    0.39632539   3.96619145  -1.32556385
C   -0.60871178   3.94888793   1.97592367
H   -1.08307489   4.21366023   2.89775633
H   -1.29449324   3.39712758   1.36751313
H   -0.30992670   4.83763553   1.46041008
C    0.63100421   3.08280246   2.26678485
N    1.55402912   2.43796247   2.48334422
C    2.64631081  -2.56810172  -4.83506454
H    2.28790315  -1.69749954  -5.34348952
H    1.83516203  -3.24756682  -4.67611822
H    3.39869276  -3.04356904  -5.42899326
C    3.24673129  -2.15887802  -3.47726072
N    3.69377163  -1.85419237  -2.46631406
C    0.23773502  -0.64936871   4.03160322
H    0.15870191   0.39162386   4.26609933
H    0.83158199  -1.13841501   4.77529575
H   -0.73908633  -1.08562298   4.01156915
C    0.90268161  -0.81587898   2.65257445
N    1.39776457  -0.93985346   1.62582484
C   -4.82433499   2.09341716  -2.33829406
H   -4.78424742   1.03054837  -2.22166174
H   -4.38221271   2.36651569  -3.27362511
H   -5.84428162   2.41622027  -2.31814187
C   -4.05039461   2.76550197  -1.18898196
N   -3.47416083   3.26589966  -0.33326686
Na   2.82414707  -1.41260100  -0.26057362
