91
Energy:   -776.25293728
C    0.03727728   5.77950323  -3.16005620
H    1.09113978   5.62550993  -3.26281839
H   -0.14351999   6.51813400  -2.40730391
H   -0.36686922   6.11421696  -4.09254289
C   -0.63761636   4.45632240  -2.75347158
N   -1.14010535   3.47115412  -2.45075084
C    3.58015115   5.79105643   1.58147861
H    4.46440477   6.23873365   1.17826549
H    3.83599022   4.87536768   2.07235493
H    3.13107461   6.45986912   2.28569374
C    2.58560267   5.50205238   0.44176374
N    1.84511611   5.28687573  -0.40680578
C    0.40370625  -1.62342785   0.10004226
H    0.24463737  -1.02276528   0.97113453
H    0.10690805  -1.07573727  -0.76992610
H    1.44072310  -1.87634812   0.02570193
C   -0.43271647  -2.91218411   0.20541935
N   -1.05547121  -3.87172173   0.28387739
C    1.79444718  -4.52482165  -2.21428518
H    1.98990014  -5.39112683  -2.81112156
H    1.45753199  -4.82806001  -1.24504127
H    2.69125650  -3.94947088  -2.11628709
C    0.70731007  -3.66962674  -2.89131883
N   -0.10211292  -3.03289525  -3.39540116
C    4.82836989  -2.57666618   0.24790959
H    4.89292588  -2.83550696  -0.78830186
H    5.74503341  -2.83216934   0.73713879
H    4.65453631  -1.52514663   0.34271263
C    3.66633562  -3.34979887   0.89871078
N    2.80114828  -3.92543131   1.38326184
C   -3.52075220  -1.84787947   2.12371060
H   -4.58362722  -1.73657811   2.07071165
H   -3.21855314  -1.90279417   3.14867850
H   -3.23039061  -2.74484674   1.61770769
C   -2.84384989  -0.63806959   1.45306664
N   -2.33986536   0.26268886   0.95374173
C   -6.39264790   0.42852791  -1.02348410
H   -6.27697400  -0.30798019  -0.25597153
H   -6.58055162  -0.05698073  -1.95829566
H   -7.21537888   1.06874389  -0.78236934
C   -5.10457108   1.26588758  -1.12972384
N   -4.14553933   1.88933991  -1.20882416
C   -2.92350025  -1.16077384  -4.37259862
H   -3.93762950  -1.35052955  -4.08898831
H   -2.42653831  -2.08916914  -4.56236183
H   -2.90716890  -0.56001400  -5.25787824
C   -2.20266958  -0.41611599  -3.23352539
N   -1.66597838   0.13831563  -2.38543359
C    0.12731875  -4.75504660   3.46052954
H   -0.75057263  -5.30613422   3.72606550
H    0.92306442  -5.00771827   4.12974173
H    0.41257954  -4.99968567   2.45869268
C   -0.16501563  -3.24613401   3.55708731
N   -0.38267186  -2.12268000   3.62897896
C    3.24213868   1.99553376  -0.06924562
H    3.58837786   2.75687567  -0.73661141
H    3.74121046   1.07486540  -0.28878200
H    3.45205662   2.28324623   0.93974154
C    1.72339520   1.81075352  -0.24495703
N    0.59262164   1.67317624  -0.37578217
C   -0.73038469   5.97609257   1.85688854
H   -1.50558838   6.50527785   2.37062230
H   -0.35498238   6.58060173   1.05780102
H    0.06312574   5.75451990   2.53963728
C   -1.29703245   4.66331672   1.28493584
N   -1.71892746   3.68589543   0.85909106
C   -0.10056073   1.34255337   3.32208491
H    0.09681809   0.56721381   2.61159892
H   -1.11095018   1.67741931   3.21310296
H    0.04499210   0.96436104   4.31237983
C    0.86008125   2.52082248   3.07622132
N    1.57532287   3.39809738   2.89316470
C   -3.30694882  -4.55837175  -2.03169927
H   -3.11122070  -5.17521840  -1.17958960
H   -2.39833189  -4.40115656  -2.57446786
H   -4.02167645  -5.04118560  -2.66490879
C   -3.86770768  -3.20195257  -1.56556998
N   -4.28521813  -2.19203683  -1.21851553
C    2.95362161  -1.73794130   4.51630009
H    3.82036309  -1.44611483   5.07172487
H    3.01744441  -2.77875920   4.27645882
H    2.07709466  -1.56038806   5.10373047
C    2.87584809  -0.91549602   3.21663281
N    2.81794218  -0.30314812   2.24897145
C    1.40914443   0.27673280  -3.86296329
H    2.01930637   0.71182892  -4.62670013
H    0.88113157   1.04973837  -3.34473177
H    0.70774322  -0.39778114  -4.30789741
C    2.30040619  -0.49123604  -2.86924485
N    2.96399109  -1.06302374  -2.12937630
Na  -1.78027901   1.89462360  -0.73933655
