91
Energy:   -775.96546566
C   -1.11933637   4.34395182  -3.66840914
H   -2.12372186   3.98390782  -3.74889699
H   -0.48251590   3.77070246  -4.30930222
H   -1.08497085   5.37307858  -3.95929781
C   -0.63977733   4.20602312  -2.21149500
N   -0.28272382   4.10332894  -1.12675620
C    3.75738665   3.76820427   2.19380748
H    4.07979327   4.71491509   2.57419251
H    4.19560690   3.60236076   1.23185217
H    4.06310091   2.99183557   2.86365039
C    2.22264980   3.76172963   2.06676068
N    1.07996846   3.75690897   1.97216856
C   -2.23555373  -4.06564212   2.10693414
H   -1.24113666  -4.05998656   2.50190616
H   -2.41912477  -4.99860371   1.61623725
H   -2.93697910  -3.93824216   2.90485067
C   -2.39303795  -2.91437330   1.09630126
N   -2.51029212  -2.05720132   0.34383915
C    2.45056473  -4.77080089  -1.26486729
H    2.96888706  -5.69642836  -1.40435181
H    3.09580184  -4.07079170  -0.77644606
H    2.15566917  -4.38024797  -2.21639455
C    1.20033588  -5.00818389  -0.39758583
N    0.26948368  -5.18492632   0.24814464
C    5.26251530  -1.53707288   0.33474301
H    6.10414614  -1.22838292  -0.24943866
H    4.64310607  -2.18672850  -0.24764765
H    5.60408004  -2.05617662   1.20581357
C    4.45108295  -0.29921367   0.76004539
N    3.84693468   0.62242878   1.07670235
C   -5.47741286   3.54623817  -0.23536613
H   -5.47491949   2.52260450  -0.54692361
H   -6.47767001   3.92517757  -0.26346693
H   -5.09736672   3.61629977   0.76240909
C   -4.58835966   4.37328115  -1.18256427
N   -3.92641913   4.98905224  -1.88779634
C    0.90339773  -1.58093471  -0.02713092
H    0.49728139  -1.86018029  -0.97686331
H    0.44823798  -2.16898534   0.74223580
H    1.95994844  -1.75004896  -0.02736673
C    0.62234775  -0.08927574   0.23280067
N    0.41309327   1.02133216   0.42633156
C   -2.26832317  -0.10216140  -2.41019573
H   -1.30747157  -0.56375167  -2.31746597
H   -2.35656470   0.34660725  -3.37752154
H   -3.03233798  -0.84140095  -2.28893012
C   -2.42461945   0.98024644  -1.32596108
N   -2.54098913   1.78614827  -0.51869911
C   -3.52656233  -0.31563067   3.32475352
H   -4.25035166   0.04876339   4.02349966
H   -2.99606396  -1.13818050   3.75705243
H   -4.02260167  -0.63981853   2.43382911
C   -2.53444024   0.81036132   2.97915868
N   -1.79576025   1.64871354   2.72184761
C    2.86790182   2.07612764  -1.87515878
H    2.58290543   2.37563840  -0.88825933
H    3.33022378   2.89956789  -2.37825286
H    3.55893230   1.26141133  -1.81504794
C    1.61811602   1.63249927  -2.65799295
N    0.68759369   1.30219779  -3.24084857
C   -2.44235247   7.38680121   0.37099748
H   -2.87922149   7.35861734  -0.60534842
H   -1.46131624   7.80968599   0.31070253
H   -3.04998555   7.98600843   1.01646773
C   -2.35100889   5.95631394   0.93399174
N   -2.28299945   4.89125115   1.35316655
C    1.67437415   0.17129202   3.74100600
H    1.45027946   0.98981182   3.08931044
H    2.61687933  -0.25489127   3.46723441
H    1.72133332   0.52191432   4.75083664
C    0.57281203  -0.89801520   3.61958540
N   -0.24735105  -1.69416303   3.52918224
C   -2.53276718  -4.76444712  -2.02482455
H   -2.91391727  -5.37724718  -2.81482511
H   -3.30914581  -4.12160239  -1.66581767
H   -2.18697705  -5.38663770  -1.22594586
C   -1.36446830  -3.91219818  -2.55430493
N   -0.49461669  -3.27766010  -2.94852714
C    1.49644575  -4.85185524   3.63458671
H    0.97805753  -5.53747449   2.99732688
H    0.78771676  -4.29812422   4.21422822
H    2.14605726  -5.39465646   4.28901074
C    2.32762371  -3.88080507   2.77563109
N    2.94647348  -3.15781408   2.13609959
C    1.78196615  -1.67578020  -4.77698828
H    1.58145737  -2.70136794  -5.00691481
H    2.34436961  -1.23505997  -5.57345995
H    0.85786822  -1.14942898  -4.65910486
C    2.59112000  -1.59156036  -3.46940384
N    3.19357181  -1.52885485  -2.49584779
Na  -0.92596721   2.95967554   0.91278274
