91
Energy:   -780.96558507
C    1.40989054   5.38030070  -5.35611206
H    2.43253615   5.67336310  -5.24117482
H    0.78217520   6.24470390  -5.29545179
H    1.27844884   4.91016934  -6.30826681
C    1.03066328   4.39105146  -4.23844814
N    0.74831134   3.65451044  -3.40629655
C    0.01782239   4.95309811   2.53132082
H   -0.79617487   4.40903237   2.96294694
H   -0.04346223   5.97992558   2.82588596
H    0.94389299   4.53905983   2.87170976
C   -0.05527554   4.85418752   0.99623992
N   -0.10970027   4.78054410  -0.14669760
C    0.52435842  -1.39724877   0.22894583
H    1.52050538  -1.74361248   0.40956589
H    0.55663097  -0.38973853  -0.12991443
H    0.05683208  -2.02187164  -0.50328671
C   -0.28290989  -1.44981565   1.53934829
N   -0.88395784  -1.48895407   2.51500248
C    3.32747855  -4.32948847  -2.30983066
H    3.87445571  -4.50565120  -3.21242850
H    3.11926008  -5.26339899  -1.83092012
H    3.90863609  -3.71454483  -1.65485026
C    2.00348448  -3.61687068  -2.64272043
N    1.01771071  -3.08629435  -2.89057199
C    4.93129331  -3.04305323   1.31547331
H    5.26933598  -2.35961517   0.56478047
H    4.55301942  -3.92800052   0.84784499
H    5.74776201  -3.30007685   1.95751444
C    3.81408959  -2.38310751   2.14488727
N    2.98228064  -1.89174793   2.76242366
C   -4.88555764   2.24695085  -1.13002956
H   -5.05067853   1.28393713  -1.56619447
H   -5.69471592   2.89827975  -1.38680307
H   -4.82848600   2.15146235  -0.06582851
C   -3.56546209   2.83297712  -1.66437115
N   -2.58259094   3.26930032  -2.06221276
C   -4.07844053  -2.71351679   1.62549680
H   -3.17158870  -2.92492398   2.15258971
H   -4.38719585  -3.58312795   1.08388286
H   -4.84115041  -2.43882018   2.32386239
C   -3.84151991  -1.55301415   0.64127007
N   -3.66512174  -0.68896718  -0.09153146
C   -2.06835367  -1.63639237  -2.89339489
H   -3.06090291  -1.37793310  -3.19826371
H   -2.10906073  -2.19102116  -1.97926748
H   -1.60609412  -2.23270574  -3.65209480
C   -1.24654374  -0.35188186  -2.67831072
N   -0.63466890   0.60449460  -2.51817078
C   -2.67489104   1.46005870   2.78608978
H   -3.57217566   2.03981142   2.72553173
H   -2.09387614   1.78838956   3.62246267
H   -2.92530280   0.42709091   2.90925866
C   -1.85929188   1.63979895   1.49222291
N   -1.25204123   1.77362373   0.52888023
C    3.55958238   1.39851490   1.42494783
H    4.39506111   0.90154746   0.97784734
H    3.07404159   0.73453099   2.10925376
H    3.90013655   2.26602443   1.95063706
C    2.56578816   1.82085250   0.32694783
N    1.82586318   2.13530204  -0.49056307
C   -3.31269043   6.54001797  -0.38957641
H   -4.26903906   6.72761471  -0.83128325
H   -2.61492558   6.26551636  -1.15290607
H   -2.96936244   7.42377086   0.10641331
C   -3.43465897   5.39315042   0.63092274
N   -3.52547008   4.53925541   1.39073075
C    1.09936869  -0.28352265   5.13612430
H    2.10792384  -0.64002303   5.11114098
H    0.43620535  -1.06818324   4.83709046
H    0.85625518   0.02955008   6.12999571
C    0.95216412   0.90830752   4.17203319
N    0.84256364   1.79567926   3.45422355
C   -0.56784414  -6.00832636  -1.76298514
H    0.40913437  -6.25951923  -1.40617244
H   -0.49378701  -5.60467159  -2.75115388
H   -1.17769289  -6.88732525  -1.78154745
C   -1.20282460  -4.96265435  -0.82758690
N   -1.67559642  -4.18410401  -0.13114040
C    0.45444503  -4.61791942   2.92233953
H   -0.57495657  -4.45955312   2.67707921
H    0.81757051  -3.78722548   3.49065860
H    0.54984097  -5.51387185   3.49945992
C    1.27608723  -4.75192529   1.62675220
N    1.88783719  -4.85169875   0.66212855
C    2.63449758   0.16101458  -3.42251237
H    3.36002978   0.21393778  -4.20717940
H    2.28821124   1.14634046  -3.18988013
H    1.80914354  -0.44142520  -3.73993343
C    3.27656102  -0.46622617  -2.17114369
N    3.75460643  -0.93323541  -1.23944282
Na  -0.29775287   2.73975617  -1.45371358
