91
Energy:   -776.82351497
C    3.81330975   1.44397678   2.75760012
H    3.96620104   0.77532196   1.93636619
H    3.63559945   0.87934391   3.64895183
H    4.68340938   2.05280202   2.88858698
C    2.59673539   2.34273748   2.46815926
N    1.69094048   3.01190568   2.25265738
C   -0.86058990   5.44614838   1.89476835
H   -1.06542182   6.49540914   1.93944408
H    0.19659092   5.28694289   1.93860241
H   -1.32974739   4.95562578   2.72191884
C   -1.41210005   4.87111898   0.57689972
N   -1.82272442   4.44298345  -0.40431338
C    3.12859297  -3.36584780   4.02988615
H    2.24879001  -3.91303615   3.76261875
H    2.87296826  -2.60076032   4.73287707
H    3.84214471  -4.03068303   4.47004193
C    3.73577999  -2.72259280   2.76927244
N    4.18785833  -2.24366021   1.83068824
C   -5.35437221   4.93282579   0.54106936
H   -4.66012437   5.51682374  -0.02626345
H   -6.10015781   5.57453122   0.96168447
H   -5.82207492   4.21386651  -0.09865780
C   -4.60705278   4.20349179   1.67296404
N   -4.05063949   3.66046948   2.51571109
C    1.10894206  -0.66297097   0.74142915
H    0.26759745  -1.19715952   0.35196539
H    2.01264905  -1.12079515   0.39703141
H    1.07317410   0.35242338   0.40587876
C    1.07066593  -0.69662309   2.28058556
N    1.04216760  -0.72167862   3.42655748
C    5.24517006  -1.46349923  -1.32037291
H    4.58983422  -2.23795614  -1.66044883
H    5.73294811  -1.77817770  -0.42151301
H    5.97898822  -1.26143380  -2.07242315
C    4.43017696  -0.18677938  -1.04221350
N    3.82337756   0.76379659  -0.83511117
C    1.37850776   0.13474053  -3.59489501
H    0.36804087   0.45651220  -3.45234739
H    1.57575765   0.03178575  -4.64150472
H    2.04580978   0.85853419  -3.17569358
C    1.58851664  -1.22191647  -2.89705686
N    1.74487779  -2.23200926  -2.37748464
C   -2.99137083   0.71642366  -5.58246138
H   -2.18363198   0.44448675  -6.22938366
H   -3.72271637   1.26651944  -6.13692276
H   -3.43963280  -0.16807159  -5.18043097
C   -2.45615700   1.58909633  -4.43198819
N   -2.05766597   2.23884080  -3.57540861
C    0.20617034  -4.30562868  -5.03721596
H    0.95160723  -4.35231488  -4.27102772
H    0.67790009  -4.34642819  -5.99674998
H   -0.46397264  -5.13333803  -4.93375240
C   -0.58113624  -2.98842958  -4.90785252
N   -1.16732177  -2.00771498  -4.81153555
C   -1.37232001  -3.30622293   3.70799097
H   -0.59179341  -2.80530502   4.24161973
H   -0.97518173  -4.17678438   3.22913502
H   -2.14301021  -3.59543563   4.39157836
C   -1.95806038  -2.35796076   2.64530236
N   -2.39417070  -1.65193647   1.85408238
C   -5.09528859   0.29664886   1.32142872
H   -6.13545991   0.51316686   1.44817163
H   -4.56615632   0.55268740   2.21549941
H   -4.97018292  -0.74661163   1.11930197
C   -4.53983204   1.11803737   0.14312955
N   -4.12626940   1.72959846  -0.73416774
C   -1.78628615  -2.92375807  -1.38533525
H   -2.33537294  -3.31786414  -2.21484371
H   -2.28224788  -3.18358615  -0.47351816
H   -0.79846887  -3.33499236  -1.38376005
C   -1.70391579  -1.39070904  -1.50606550
N   -1.64258731  -0.24928435  -1.59595466
C   -1.42459781   1.62603708   3.82354104
H   -0.49795424   2.02459674   4.18044731
H   -1.54222636   0.62368233   4.17899507
H   -2.23331847   2.22850356   4.18117790
C   -1.42502146   1.62794930   2.28354229
N   -1.42533689   1.62937304   1.13694322
C    2.85675470  -4.77083343  -0.40290487
H    3.11120745  -5.78108068  -0.15886700
H    3.68643395  -4.13137872  -0.18466394
H    2.61943806  -4.70436606  -1.44413587
C    1.63797143  -4.33283190   0.43035500
N    0.73053189  -4.00671986   1.05075485
C    2.70247745   4.08763964  -0.85091427
H    2.84001205   4.77109959  -1.66262044
H    3.58065070   3.48687692  -0.73779934
H    2.52673356   4.63581553   0.05103716
C    1.49355508   3.17965233  -1.14360143
N    0.59345744   2.50361451  -1.36152032
Na  -1.77735337   2.13270303  -1.19254874
