91
Energy:   -777.54846253
C    3.01890790   3.47007824  -4.33542537
H    3.42868033   4.41450994  -4.62703388
H    2.29511521   3.15676513  -5.05851466
H    3.80259090   2.74387161  -4.27742550
C    2.34294347   3.60693421  -2.95849308
N    1.83965722   3.70882970  -1.93330441
C    2.52842794   1.50185451   3.57132841
H    2.09822286   0.56692026   3.86411113
H    2.37830185   2.22235388   4.34801490
H    3.57705435   1.37420967   3.40106816
C    1.85443169   1.99419446   2.27713738
N    1.35261084   2.36076393   1.31355333
C    0.08810824  -5.78264944   1.63530290
H    1.09161293  -5.47869362   1.42202051
H   -0.09208287  -6.74546184   1.20469573
H   -0.05141030  -5.83406752   2.69492068
C   -0.89604721  -4.76038306   1.03696394
N   -1.62879567  -3.99925927   0.59147340
C    2.81181722  -1.17599501  -3.33602254
H    2.89815441  -2.16116699  -2.92751030
H    3.78067247  -0.82128664  -3.61957250
H    2.17540620  -1.20091588  -4.19582429
C    2.20908397  -0.23272962  -2.27840114
N    1.76032167   0.46957435  -1.49095394
C    5.34772975  -1.88240552  -0.57447175
H    5.57864495  -1.29592387  -1.43912060
H    4.68867276  -2.67919301  -0.84955843
H    6.24998690  -2.28988634  -0.16852776
C    4.66535685  -0.99325299   0.48164140
N    4.15729920  -0.33123851   1.26796564
C   -2.57922997   0.80401508  -4.53015044
H   -2.27248641  -0.20526002  -4.70951692
H   -2.69253374   1.31368905  -5.46411714
H   -3.51287632   0.80549304  -4.00746374
C   -1.51388394   1.52094138  -3.68005955
N   -0.72068540   2.05472559  -3.04712824
C   -5.90693605   2.18036719   0.45016530
H   -6.66469114   2.91854177   0.28952380
H   -5.34724333   2.42885679   1.32760252
H   -6.36444236   1.22166891   0.57855792
C   -4.96340551   2.14011714  -0.76627625
N   -4.26090414   2.11014915  -1.67197228
C   -3.18343912  -1.16720673  -1.06045471
H   -3.18018638  -1.16593338  -2.13044910
H   -4.14294443  -0.85281365  -0.70632813
H   -2.97794768  -2.15505898  -0.70433634
C   -2.10290237  -0.19975991  -0.54268355
N   -1.29839364   0.52054822  -0.15717938
C   -3.08090531  -2.35780512   3.19053253
H   -2.03271298  -2.31351863   2.98021913
H   -3.48683816  -3.26371150   2.79121906
H   -3.23351856  -2.33486007   4.24934404
C   -3.78563110  -1.15073817   2.54404130
N   -4.31033149  -0.25202195   2.06269920
C    4.79352557   2.92639938   0.06604821
H    4.93486301   2.31700837   0.93413029
H    3.81799418   3.36514499   0.09324910
H    5.53230145   3.70024117   0.04936937
C    4.93085651   2.05824594  -1.19848721
N    5.03310563   1.41186625  -2.13999131
C   -2.92561616   5.33362378  -2.05050015
H   -2.32344238   5.97650475  -2.65794642
H   -3.61457981   5.92260759  -1.48188232
H   -3.46766190   4.65609569  -2.67663209
C   -2.02056134   4.53579188  -1.09345258
N   -1.34670689   3.94176977  -0.38088717
C   -2.17753936   2.40871469   2.63464222
H   -2.65648436   2.08384578   1.73465774
H   -1.50838319   3.21345185   2.41209510
H   -2.91734748   2.74247554   3.33191314
C   -1.38652921   1.23769494   3.24670078
N   -0.79758619   0.36581751   3.70240619
C   -0.49413440  -4.42908209  -2.68275616
H    0.38051213  -4.64507359  -2.10548560
H   -0.45597838  -4.97115800  -3.60449198
H   -1.36494311  -4.72038268  -2.13345182
C   -0.55457426  -2.91877393  -2.97757184
N   -0.59957448  -1.79428086  -3.19707552
C    0.42736484  -1.74907661   6.17075777
H   -0.32902054  -0.99548927   6.10084749
H    1.39244958  -1.28700852   6.16885256
H    0.29803200  -2.30113176   7.07817566
C    0.31313620  -2.70416664   4.96811283
N    0.22808779  -3.41527458   4.07268901
C    0.94421995  -1.50899118   1.38193027
H    1.50378853  -1.60350745   2.28904099
H   -0.07993457  -1.75742368   1.56710022
H    1.00828240  -0.50173224   1.02664938
C    1.52067539  -2.46510293   0.32119966
N    1.94987266  -3.17697159  -0.46856251
Na   0.27512371   2.22055179  -0.82721970
