91
Energy:   -776.32896642
C    1.18804272   3.76345296  -5.14307176
H    1.30423296   4.76843494  -5.49151291
H    0.27233808   3.35867845  -5.52061871
H    2.00905125   3.16959882  -5.48684687
C    1.15710717   3.75430892  -3.60340966
N    1.13407425   3.74750077  -2.45706124
C   -0.22058962   4.23400773   3.86628936
H   -0.34458323   5.18449151   4.34179579
H    0.64567248   3.74704650   4.26297290
H   -1.08430199   3.62904613   4.04773222
C   -0.04580093   4.43757459   2.34984304
N    0.08433720   4.58913938   1.22077983
C    0.36662154  -1.33917105   0.75298887
H    0.85676525  -0.45279783   1.09795529
H   -0.15269390  -1.12787074  -0.15836328
H    1.09401014  -2.10455351   0.57979936
C   -0.63829061  -1.81742266   1.81742627
N   -1.38649338  -2.17350272   2.60994830
C    0.78207041  -2.16665461  -6.17343631
H    0.06807489  -2.68235516  -5.56584802
H    1.75130213  -2.59551557  -6.02657843
H    0.50485163  -2.25587228  -7.20304257
C    0.81370893  -0.67878271  -5.77741077
N    0.83726525   0.42900554  -5.48255175
C    4.18728574  -3.89204084   1.59716327
H    4.66665519  -3.25719171   0.88157142
H    3.61917248  -4.64073218   1.08568728
H    4.92809327  -4.36260438   2.20926885
C    3.24879978  -3.05093193   2.48225078
N    2.55005432  -2.42468812   3.14123866
C   -4.55223084   2.48401395  -0.90862052
H   -4.57795083   1.49611165  -1.31884937
H   -5.30933329   3.08211537  -1.37118908
H   -4.72926381   2.43716629   0.14559185
C   -3.17075413   3.11246254  -1.16972292
N   -2.14218193   3.58037109  -1.36412553
C   -2.68063928  -3.45318136  -0.51707308
H   -2.77261650  -3.82009608   0.48383350
H   -1.66763134  -3.56031089  -0.84454409
H   -3.32519026  -4.01242107  -1.16259928
C   -3.07856416  -1.96602223  -0.55724175
N   -3.37483732  -0.85876467  -0.58714916
C   -2.08198545  -0.06916405  -3.64253440
H   -1.97282342   0.41225321  -4.59186114
H   -3.07249846   0.09347410  -3.27195120
H   -1.91066870  -1.11951684  -3.75347886
C   -1.06006510   0.51560151  -2.64989748
N   -0.29919896   0.95098605  -1.91083417
C   -3.18557586   0.75881599   2.76672731
H   -3.79404909   1.58126218   3.08016435
H   -2.72430242   0.31024127   3.62165808
H   -3.79486813   0.03382515   2.26868082
C   -2.09679087   1.26416631   1.80196398
N   -1.28614095   1.64042260   1.08365382
C    3.69905386   0.83935255   2.25842143
H    4.28342838   0.09327802   1.76165248
H    3.11053540   0.37966560   3.02473274
H    4.34868842   1.56805522   2.69644705
C    2.77002822   1.52596184   1.24005065
N    2.07832640   2.03717367   0.48182732
C   -2.95412648   6.53074518   0.83022904
H   -3.82161242   6.89360343   0.31963897
H   -2.17367833   6.34758692   0.12153107
H   -2.62678117   7.26100792   1.54048285
C   -3.29999030   5.22107676   1.56285912
N   -3.55750163   4.24596908   2.10833552
C    0.36505270  -1.18417447   5.51451529
H    1.29089500  -1.72055294   5.51072699
H   -0.42030621  -1.82587108   5.17343477
H    0.14870544  -0.85313166   6.50875048
C    0.47424017   0.03492101   4.57991146
N    0.55553520   0.94259301   3.88405643
C    2.15593018  -4.28928990  -1.99424241
H    1.72671584  -5.25265818  -1.81369663
H    2.63017586  -3.93722707  -1.10203061
H    2.88053666  -4.36288484  -2.77809720
C    1.04822511  -3.30354356  -2.41004720
N    0.22348833  -2.56961061  -2.71963277
C    0.03348677  -5.18598474   3.47617101
H   -0.98470177  -4.89854170   3.63607346
H    0.67654233  -4.55991389   4.05876343
H    0.16654144  -6.20607564   3.77046695
C    0.38189916  -5.03259324   1.98396464
N    0.64130803  -4.91838630   0.87294917
C    2.99548780   0.45067686  -2.62946105
H    3.77471330   0.40931699  -3.36157931
H    2.95222908   1.43398526  -2.20977977
H    2.05888931   0.21875361  -3.09194777
C    3.28424799  -0.57123058  -1.51414820
N    3.49924307  -1.33208712  -0.68374710
Na   0.04787657   2.88662426  -0.49314317
