53
Energy:  -1382.76678327
O   -0.57053852  -0.97664349   3.29120539
H   -0.88732841  -0.60355221   2.46860044
H    0.10764687  -1.59844296   3.02727010
O   -3.18194911  -1.79450080   0.54076700
H   -2.55180746  -1.10557120   0.75178680
H   -2.66927097  -2.45348522   0.07265108
O   -3.04538732  -0.50693842  -1.90642179
H   -3.23839866  -0.89048466  -1.05092734
H   -2.12512637  -0.24931511  -1.85181536
O    2.89407552   2.21744712  -2.03640501
H    2.17248015   2.66608467  -1.59565983
H    3.22375006   1.59701865  -1.38631651
O    1.61340789   0.09594643  -3.27796682
H    0.80539444   0.06759471  -2.76557801
H    2.06308485   0.88420730  -2.97355381
O    2.68095178  -1.86337941  -1.68448958
H    1.95134436  -1.93606149  -1.06916676
H    2.36310714  -1.26946154  -2.36453973
O    1.49964431  -2.48338447   2.30033106
H    2.27852716  -1.93355829   2.38556319
H    1.16054435  -2.28548803   1.42735909
O    3.56805446   0.23801018  -0.19010123
H    3.44126591  -0.55198153  -0.71552451
H    2.68390785   0.49994801   0.06661885
O    3.53033211  -0.61692243   2.45259423
H    2.84601435  -0.01814390   2.75160147
H    3.67011299  -0.38264827   1.53509285
O    0.61757826   3.24557704  -0.67238965
H    0.80755360   2.39970313  -0.26663290
H    0.04161884   3.03521417  -1.40740669
O    1.38823522   0.96960160   3.01167288
H    0.68555773   0.37613726   3.27676962
H    1.27970734   1.06238606   2.06518221
O   -3.57383844   2.19332829  -1.49178601
H   -3.09035233   2.34345306  -0.67942181
H   -3.49321510   1.25252282  -1.64868339
O   -1.92007954   2.59567436   0.66519789
H   -1.07971298   2.94435005   0.36780731
H   -1.74169672   1.67650133   0.86402537
O   -2.97680019  -2.38171259   3.25558928
H   -2.14147157  -1.93757233   3.40118247
H   -3.16098536  -2.24774843   2.32587897
O   -1.46461223  -3.09531831  -1.16304149
H   -1.71136938  -2.44341334  -1.81906182
H   -0.67940404  -2.73539843  -0.75056406
O   -1.10053783   2.46732936  -2.63804436
H   -0.82773838   1.59253455  -2.36137425
H   -2.01335539   2.53391355  -2.35775432
S   -0.02397692  -0.17132742  -0.09689920
O    1.03177224   0.79791681   0.31060456
O    0.52149553  -1.55636307  -0.03181416
O   -1.18930099  -0.05268964   0.82399433
O   -0.45987447   0.12582620  -1.49038156
