53
Energy:  -1378.62812233
O   -0.51878225  -0.79119480   2.92932794
H   -0.75983247  -0.33351948   2.12393366
H    0.18299707  -1.38658330   2.66617369
O   -3.65674702  -0.42873981   0.13646834
H   -2.79841591  -0.06584806   0.35512134
H   -3.48644975  -1.02538994  -0.59239331
O   -2.74174496  -2.06183457  -1.86129901
H   -2.27191083  -2.66674760  -1.28721890
H   -2.11380405  -1.36107476  -2.03696279
O    2.47629644   1.73801983  -2.68513869
H    1.78047882   1.72383819  -2.02797161
H    3.20624746   1.27701996  -2.27175936
O    0.99051441  -0.28283419  -3.81759484
H    0.22462750  -0.25781803  -3.24398933
H    1.51066359   0.47717488  -3.55670615
O    2.40224063  -1.88871806  -2.05822211
H    1.75363363  -1.84843032  -1.35542932
H    1.98360294  -1.44657329  -2.79678988
O    1.60042972  -2.24378327   2.01563905
H    2.39123364  -1.71595765   2.12636901
H    1.25565568  -1.98326579   1.16153522
O    3.41878662   0.16390170  -0.52746259
H    3.23854723  -0.64345413  -1.00904558
H    2.56582307   0.59072038  -0.44677278
O    3.64890806  -0.43497378   2.17650263
H    2.99428835   0.12727442   2.59072703
H    3.61147237  -0.20342873   1.24848468
O    1.02084148   2.87160216   1.48269818
H    0.07930032   3.00141971   1.59618612
H    1.09394816   2.30133693   0.71739770
O    1.59246406   0.97083664   3.33055658
H    0.82246254   0.40433662   3.28149287
H    1.40526548   1.68367988   2.71978407
O   -3.06848649   1.50563336  -1.95111662
H   -3.52873837   1.10327806  -1.21456365
H   -2.30618507   0.94444159  -2.09321580
O   -1.70328036   2.88671811   1.35675719
H   -1.59139065   3.25866070   0.48190220
H   -1.59856882   1.94351397   1.23172402
O   -2.71881766  -2.24215220   2.04524459
H   -1.99988683  -1.76011693   2.45391600
H   -3.13174912  -1.60690601   1.46028157
O   -1.24121932  -3.36476051   0.00500588
H   -0.53373418  -2.72725272  -0.09132911
H   -1.72682159  -3.06978294   0.77533731
O   -1.08782072   3.32914679  -1.26940380
H   -0.34443832   2.73881680  -1.14642017
H   -1.79943606   2.76078637  -1.56402541
S   -0.16882053   0.04244281  -0.51391417
O    0.83455362   1.14074021  -0.59807549
O    0.52559616  -1.24352600  -0.22379404
O   -1.14001116   0.33944113   0.57635221
O   -0.89542076  -0.06688412  -1.81013937
