53
Energy:  -1380.17393391
O   -0.71153505  -1.11334841   3.26086407
H   -0.91392571  -0.70089062   2.42113289
H    0.17300459  -1.46196127   3.15000134
O   -3.41096662  -1.05245540   0.46714808
H   -2.57604052  -0.61422353   0.63171748
H   -3.54685804  -0.96349552  -0.47617133
O   -3.45570403  -0.69099413  -2.25753026
H   -2.73894123  -1.32302920  -2.31243558
H   -3.02372868   0.16314004  -2.26669375
O    2.33205253   2.19205851  -1.82200991
H    1.99560408   1.91059752  -0.97123732
H    2.37027760   1.38957586  -2.34238698
O    2.17892018  -0.28090677  -2.95116898
H    2.70686625  -0.76785191  -2.31840582
H    1.31374782  -0.22078776  -2.54608337
O   -1.24563779  -2.29720708  -2.21877215
H   -1.05409634  -2.86144379  -1.46965222
H   -0.75538396  -1.49356044  -2.04546577
O    2.14455229  -1.32285193   2.83609773
H    1.89228945  -0.42870919   3.06654092
H    1.79362711  -1.45166538   1.95491077
O    3.39851152  -1.53314462  -0.80827354
H    2.52415656  -1.69249443  -0.45282608
H    3.76543335  -0.85083884  -0.24608227
O    3.74548851   0.33426493   1.19753545
H    3.44030138  -0.32517833   1.82061430
H    2.94556913   0.75497900   0.88232044
O    0.16159942   3.66262849   0.33774573
H    0.58686213   2.81427853   0.46298878
H    0.13344173   3.77909178  -0.61192542
O    1.07992195   1.13621360   3.24423549
H    0.24293378   0.68285818   3.34499022
H    1.13207476   1.33905428   2.31022928
O   -1.94921072   1.65227259  -2.11660346
H   -2.19646797   1.96955010  -1.24802377
H   -1.24363852   1.02679540  -1.95174589
O   -2.26606427   2.43830690   0.48604708
H   -1.48546486   2.99136485   0.51803636
H   -1.95461821   1.56882401   0.73750822
O   -2.36006840  -3.00210838   2.06756358
H   -1.81234196  -2.42959852   2.60464836
H   -2.84315280  -2.40514124   1.49616920
O   -0.49895012  -3.59459072   0.11721140
H   -1.16624235  -3.46536163   0.79119417
H    0.11013767  -2.86643191   0.23980281
O    0.03714213   3.57427073  -2.39205650
H    0.85223224   3.07822372  -2.31591646
H   -0.64917849   2.90722361  -2.40767694
S    0.28182494  -0.04765240   0.09098478
O    1.16757213   1.10018067   0.43454140
O    0.96856112  -1.32482659   0.43350414
O   -0.98795925   0.05622341   0.86361532
O   -0.02087425  -0.02218710  -1.36772175
