53
Energy:  -1375.67889357
O   -0.40250822  -1.11091786   3.21051891
H   -0.77888801  -0.63109841   2.47272261
H    0.31778987  -1.61227693   2.82836503
O   -3.69422425  -0.93620077   0.76180063
H   -2.89800078  -0.43785312   0.94594637
H   -3.60872732  -1.19466575  -0.15586924
O   -2.80062982  -1.58448642  -1.76003999
H   -2.31830401  -2.29022864  -1.32931782
H   -2.18519549  -0.85168531  -1.78183349
O    2.58770354   1.50259658  -3.18514941
H    1.82298606   2.03570115  -2.96780511
H    2.89525617   1.16921553  -2.34223760
O    0.66322470  -0.41793085  -3.62072163
H    0.04513789  -0.20431459  -2.92174478
H    1.32355659   0.27363619  -3.57680499
O    2.20371598  -1.90678576  -1.92031730
H    1.56780080  -1.86527440  -1.20609006
H    1.74528214  -1.53112403  -2.67194787
O    1.70394968  -2.32846013   1.97103575
H    2.48150035  -1.77025067   1.97803606
H    1.23774551  -2.08057712   1.17263765
O    3.23334353   0.34280590  -0.76433917
H    2.97872786  -0.49437475  -1.15232277
H    2.42345721   0.69043924  -0.39088628
O    3.68267314  -0.41263017   1.87988691
H    3.01455900   0.12749077   2.30193515
H    3.63566637  -0.17289840   0.95438656
O   -0.11443564   3.60590585   0.00477493
H    0.34222477   2.77481779   0.13510431
H   -0.96116034   3.35875823  -0.36698734
O    1.53823498   0.96246866   2.86703862
H    0.86873763   0.34503718   3.16162904
H    1.31524346   1.14036502   1.95333215
O   -2.51700571   2.61222469  -0.84142004
H   -2.64000357   2.48616976   0.09943783
H   -2.12299010   1.79392767  -1.14370061
O   -2.03331813   2.61542634   1.89200487
H   -1.26907500   3.10265635   1.58415555
H   -1.81022225   1.69726867   1.73888220
O   -2.45024795  -2.82641128   2.29826197
H   -1.75640406  -2.31001921   2.70832506
H   -2.97585937  -2.18518956   1.81993240
O   -1.38483885  -3.36447458  -0.20234006
H   -0.68012764  -2.71671755  -0.20731887
H   -1.75233954  -3.31251225   0.67997224
O    0.24025865   2.69240940  -2.57531826
H    0.28074703   3.20514198  -1.76804021
H   -0.21181309   1.88656080  -2.32537623
S   -0.23285570   0.09725813  -0.05657073
O    0.85213760   1.07878830   0.22536556
O    0.33840436  -1.27846680  -0.09037672
O   -1.26713432   0.17942511   1.01282926
O   -0.85483044   0.40928593  -1.37410103
