53
Energy:  -1382.48423236
O   -0.79096172  -1.74870341  -2.61213904
H   -0.39043825  -1.60529351  -1.75467394
H   -0.90206426  -0.86998749  -2.97510792
O    1.83418911  -2.41238437  -3.33309831
H    0.91790713  -2.17948543  -3.18337437
H    2.32505718  -1.63093221  -3.07890763
O    1.25809300   3.60008924  -0.77324088
H    0.43009936   3.62380737  -0.29355783
H    1.30496617   2.71201902  -1.12731156
O    3.77120349  -1.19976057   0.19787956
H    3.15294931  -0.57966752   0.58450372
H    3.23704817  -1.96063557  -0.03010986
O   -2.52289381   0.26115927   2.08792372
H   -1.89524206   0.58188218   1.44029578
H   -2.17191555   0.55533525   2.92846319
O   -0.91669158   1.18038813   4.11555756
H   -0.64622968   1.90205007   3.54785494
H   -0.32130913   0.46445743   3.89375850
O    2.00966094  -3.11365780  -0.68636489
H    1.33998716  -2.48204447  -0.42400355
H    2.04560220  -3.04300875  -1.64027725
O    2.51240342   2.90513902   1.58657781
H    2.36435411   1.96445443   1.48949156
H    2.27259482   3.27478359   0.73682103
O   -2.65068062   1.65959659  -1.25257248
H   -3.32015842   1.05562585  -0.93124605
H   -1.91701650   1.54838914  -0.64792241
O    0.63985870  -0.88434879   3.19992007
H    1.14002765  -0.43975012   2.51552626
H    0.05931261  -1.47901837   2.72498199
O    3.25966644  -0.27714504  -2.35352733
H    3.61548783  -0.58567249  -1.52020038
H    2.50173015   0.25384820  -2.10896523
O   -1.35300692  -2.16153674   1.58853067
H   -1.83172782  -1.36847563   1.82959546
H   -0.74136291  -1.87572474   0.90997711
O   -0.87239242   0.91550681  -3.22148714
H   -0.08445543   0.98502394  -2.68245605
H   -1.57953111   1.22124476  -2.65341053
O   -4.28852842  -0.18130415  -0.02478398
H   -3.82283928   0.01845714   0.78728800
H   -3.86259090  -0.97127041  -0.35759381
O   -2.84619893  -2.38369552  -0.78930255
H   -2.20154522  -2.19632191  -1.47161083
H   -2.33206670  -2.44767021   0.01556213
O   -0.15163830   3.02984214   2.20770085
H   -0.41535437   2.35732161   1.57968667
H    0.80401296   3.04538629   2.15553866
S    0.59505330   0.31684564  -0.03657034
O    1.08052781   0.90934866  -1.31459798
O    0.23829426  -1.11307976  -0.25597029
O    1.66843170   0.40864037   0.99276564
O   -0.60704056   1.06247328   0.43152130
