53
Energy:  -1382.27653435
O   -0.58191253  -0.05511586   3.28867469
H   -1.04084897   0.10681872   2.46442570
H   -0.13526271  -0.89101147   3.15445732
O   -3.10278700  -1.96407700   0.99877519
H   -2.55899945  -1.17640091   1.00843655
H   -2.65833080  -2.55509866   0.39100556
O   -3.33811024  -1.18517674  -1.84596336
H   -3.53577552  -1.16446925  -0.90962395
H   -2.54428102  -0.65785144  -1.93537844
O    2.70136900   1.57844813  -2.75810000
H    2.10121307   2.18807115  -2.32867656
H    2.98651316   0.98996256  -2.05909401
O    0.86666100  -0.26393593  -3.68379090
H    0.13864762  -0.13214811  -3.07645217
H    1.49293523   0.42473282  -3.46074878
O    1.93253612  -2.21032805  -2.05107055
H    1.27223425  -2.16852487  -1.35934388
H    1.58890011  -1.64786701  -2.74517696
O    0.83493191  -2.25600334   2.27430560
H    1.68607614  -1.81924191   2.30631832
H    0.53578666  -2.13296139   1.37341457
O    3.18990966  -0.22007078  -0.68274990
H    2.93085269  -1.00711125  -1.16200831
H    2.36300523   0.18142311  -0.41579752
O    3.07833731  -0.62926438   2.10206985
H    2.57989929   0.16530529   2.29298981
H    3.22981942  -0.59638483   1.15750437
O    0.22055166   3.82982685   1.30055906
H    0.63268389   3.11383000   1.78401265
H    0.49583170   3.69666436   0.39351964
O    1.39183983   1.55217765   2.37570462
H    0.70903462   1.09176029   2.86358242
H    1.24000482   1.30865066   1.46253838
O   -1.73174797   2.70853953  -1.97796264
H   -2.05268236   2.81515253  -1.08249258
H   -1.51798124   1.77807971  -2.04710125
O   -2.25922114   2.75272119   0.72549731
H   -1.44839227   3.16827868   1.01892593
H   -2.08413608   1.81378503   0.78855242
O   -1.68166931  -3.40397654   2.95589415
H   -0.79065967  -3.12124359   2.74999188
H   -2.23821793  -2.88614567   2.37422701
O   -1.85949398  -3.34256616  -1.00350906
H   -2.36101427  -2.72247426  -1.53284382
H   -1.07422695  -2.85900727  -0.74707518
O    0.88079933   3.08748334  -1.28191163
H    0.92190973   2.24759587  -0.82460339
H    0.00548818   3.10750590  -1.66877251
S   -0.38532486  -0.14138858  -0.30845884
O    0.79607748   0.73591767  -0.07453093
O    0.02813750  -1.56916251  -0.20545168
O   -1.42940881   0.14835991   0.71429946
O   -0.93610562   0.11933060  -1.66815222
