53
Energy:  -1380.06069499
O   -0.15757877  -0.42092774   3.34895384
H   -0.83980216  -1.03008752   3.63131434
H   -0.34714142  -0.25997737   2.42462012
O   -3.16133468  -0.88129467   1.09929770
H   -3.57872904  -0.01994361   1.10868635
H   -2.22657920  -0.69408363   1.01318110
O   -2.55370760  -1.68532606  -1.54406878
H   -2.86093075  -1.43075658  -0.67398823
H   -1.83166965  -1.08470711  -1.72886574
O    2.43487981   2.37480498  -3.19315639
H    1.77614587   2.78203641  -2.63060505
H    2.96867722   1.85004633  -2.59656563
O    1.15009525   0.02828116  -3.87122118
H    0.51954548  -0.02822279  -3.15327540
H    1.58458093   0.87153106  -3.74322260
O    2.78649971  -1.62821608  -2.38254287
H    2.25059300  -1.70935155  -1.59358604
H    2.23140724  -1.15460044  -3.00205270
O   -0.54391056  -3.94985245   2.02783592
H    0.26390347  -3.45848820   2.17693155
H   -0.69196601  -3.88762419   1.08420513
O    3.69071630   0.75971909  -1.39365114
H    3.55589459  -0.11782226  -1.75138867
H    2.93424475   0.90619674  -0.82573659
O    1.59234945  -2.29684284   2.28391954
H    1.09656210  -1.61431012   2.73622015
H    1.54355095  -2.05582586   1.35884582
O   -0.28368687   3.90985020   1.22089275
H    0.25540388   3.30605239   1.73181466
H    0.04612004   3.82758991   0.32607852
O    1.26146243   1.97716369   2.40949721
H    0.83319376   1.25706793   2.87240097
H    1.40663561   1.64124995   1.52500948
O   -1.85800693   2.22758308  -1.85503859
H   -2.15192150   2.23220626  -0.94409144
H   -1.38843755   1.39907149  -1.95150095
O   -2.29237999   2.08275824   0.86932597
H   -1.70194128   2.80868534   1.07092909
H   -1.73534135   1.30491458   0.89930992
O   -2.24598720  -2.26821754   3.35538930
H   -1.69261283  -2.92291737   2.92950576
H   -2.66860041  -1.80435855   2.63257207
O   -0.66801330  -3.50133708  -0.67098531
H   -1.37839723  -2.98302127  -1.04905309
H    0.05555870  -2.88222156  -0.57417941
O    0.59623774   3.28704374  -1.31878834
H    0.94237230   2.50790310  -0.88363022
H   -0.26728056   3.02156254  -1.63515478
S    0.33550083  -0.13564984  -0.31155285
O    1.29788965   0.99081474  -0.15348540
O    1.07168396  -1.42975856  -0.25309763
O   -0.67095087  -0.08676517   0.78606515
O   -0.35661944  -0.01689036  -1.62569354
