53
Energy:  -1377.33807838
O    0.24427377  -3.57082945  -0.16799452
H    0.50031139  -2.68112440  -0.41110254
H   -0.67950815  -3.62976592  -0.41168551
O    3.28977342  -0.20760330  -1.26369102
H    3.46569717   0.19327053  -0.41246669
H    2.43825349  -0.63178957  -1.15780588
O    0.00464127   3.47685809   1.09379278
H    0.04632654   3.01791136   1.93275766
H   -0.01951332   2.77878692   0.43931204
O    3.38558429   1.14859628   1.12678827
H    3.17835510   2.03358225   0.82664205
H    2.53582529   0.76130797   1.33690552
O   -2.54417277  -1.08588306  -1.84115175
H   -2.20662117  -0.85895612  -0.97466752
H   -1.76176290  -1.23592958  -2.37176714
O   -0.22978604   1.78109323   3.27280008
H   -1.12247092   1.72423592   2.93204682
H    0.27887660   1.19532036   2.71211807
O    0.86279800  -1.31181810   3.61525851
H    0.99198387  -0.84226517   2.79120578
H    0.20205412  -0.80014625   4.08199322
O    0.12584587   1.28082959  -4.10590204
H   -0.66301282   1.46262012  -3.59513202
H    0.84745365   1.54504655  -3.53519768
O   -0.22425167  -1.31363325  -3.25445573
H    0.21416966  -1.27956718  -2.40424511
H   -0.04892171  -0.45946327  -3.64927833
O   -2.50064939  -3.54889091  -0.59972824
H   -2.56326897  -3.23219648   0.30139066
H   -2.58949109  -2.76195978  -1.13738835
O   -2.40498491  -2.44698197   1.88435194
H   -2.05808691  -1.67436916   1.43829918
H   -1.62945238  -2.90746587   2.20487608
O   -0.06046259  -3.66920557   2.55577824
H    0.16174249  -3.65374527   1.62485519
H    0.33943695  -2.87547667   2.91117470
O   -1.98213374   1.58661068  -2.39170654
H   -1.31578999   1.64292036  -1.70683643
H   -2.37000413   0.71888382  -2.27839939
O   -2.49801949   1.73768869   1.74227899
H   -2.08081912   2.40593368   1.19856552
H   -2.26027357   0.90827365   1.32781620
O    1.97460308   2.00303099  -2.16914878
H    1.20473889   1.84312410  -1.62328178
H    2.54535210   1.25236000  -2.00492194
O    2.58154831   3.55400535   0.04501051
H    2.41893336   3.10895877  -0.78668761
H    1.71779734   3.62705817   0.45100238
S    0.05496681   0.04756225   0.14834824
O    0.85877276   0.18139012   1.39578004
O    0.70103487  -0.94610832  -0.75459962
O   -1.32018480  -0.41279092   0.49059525
O   -0.01975560   1.36775815  -0.53838270
