53
Energy:  -1378.31561408
O   -1.42511272  -1.40124559   3.37782997
H   -1.59008321  -0.72581958   2.71994221
H   -0.54253572  -1.71608000   3.18246115
O   -3.60985650  -1.16618502   0.09818760
H   -2.99460077  -0.57131206   0.52692810
H   -3.15856466  -1.44480221  -0.69864361
O   -1.87636846  -2.02633247  -1.90329499
H   -1.52720821  -2.64419193  -1.26097992
H   -1.44947447  -1.19558773  -1.69387544
O    2.08869624   2.09276303  -1.32124829
H    1.57352627   1.89007502  -0.54038382
H    1.90214424   1.37388357  -1.92510467
O    1.48312544  -0.25744179  -2.66334146
H    2.00209437  -0.81591357  -2.08453893
H    0.67243232  -0.09841716  -2.17989583
O   -0.09585892  -2.09509298  -4.04504585
H   -0.78241314  -2.16299697  -3.38152177
H    0.52595239  -1.46368246  -3.68324027
O    2.43996507  -1.90517565   2.35481126
H    1.63065714  -1.68595307   1.89308190
H    3.05559439  -2.14158099   1.66102101
O    2.77109107  -1.54387045  -0.58014809
H    1.93739440  -1.48141892  -0.11401343
H    3.24133431  -0.74582916  -0.33883248
O    4.02667644   0.78050369   0.08700573
H    3.66496236   0.86058174   0.96960545
H    3.46617396   1.33722338  -0.45348665
O   -0.07649615   3.88084374   1.02004029
H    0.22000966   2.97237306   1.07478678
H    0.01070239   4.10635079   0.09387895
O    2.72187470   0.83893088   2.45619684
H    2.63034740  -0.10763221   2.56515978
H    1.94655282   1.09933921   1.95890887
O   -1.98865147   2.39666802  -1.62839697
H   -2.33998987   2.55167500  -0.75160394
H   -1.53076806   1.55897259  -1.55881966
O   -2.57537597   2.75518651   1.04340003
H   -1.75602870   3.24177516   1.13358536
H   -2.33358057   1.84459942   1.21250939
O   -3.00467158  -3.07680215   1.92253235
H   -2.49899531  -2.54213240   2.53462027
H   -3.35062133  -2.45089589   1.28629971
O   -0.89333822  -3.45967989   0.21817966
H   -0.35101286  -2.70507047   0.44770018
H   -1.62799105  -3.42240342   0.83065621
O    0.17728397   4.05144394  -1.71150691
H    0.90062332   3.42603246  -1.66823453
H   -0.60734306   3.50686940  -1.77499588
S   -0.26875393   0.12666207   0.44848467
O    0.61580230   1.27652340   0.78830700
O    0.41740055  -1.14850804   0.79953058
O   -1.54058620   0.23427378   1.21722546
O   -0.56763237   0.14435914  -1.01112435
