53
Energy:  -1377.25882239
O   -0.92707878  -0.95368624   3.27312644
H   -1.06717215  -0.60320877   2.39348376
H   -0.00222201  -1.19990503   3.28887751
O   -2.96449512  -1.61882764  -0.16219853
H   -2.39367022  -0.94244975   0.20236112
H   -2.42404658  -2.06208161  -0.81616575
O   -4.08875909  -0.10146473  -2.20595209
H   -3.81345888  -0.64787184  -1.46982648
H   -3.34078799   0.47234694  -2.37181723
O    2.34792603   2.07755573  -1.91963157
H    1.95658177   1.86034444  -1.07352238
H    2.42121711   1.23764302  -2.37284995
O    2.31501174  -0.49202896  -2.82576138
H    2.84021247  -0.85904837  -2.11464059
H    1.42849905  -0.44199877  -2.46823646
O   -1.09717050  -2.69417633  -1.81325065
H   -0.66270886  -3.15696760  -1.09680165
H   -0.67083676  -1.83755251  -1.83907718
O    1.95386806  -0.93922686   3.07569364
H    1.63328249  -0.04441010   3.18865251
H    1.69385616  -1.17674057   2.18563021
O    3.51636993  -1.39159717  -0.49609293
H    2.63654806  -1.57688508  -0.16774294
H    3.81401688  -0.64470692   0.02332318
O    3.60320200   0.64482824   1.38293731
H    3.28556262   0.03225490   2.04633084
H    2.80957517   0.97670853   0.96312333
O    0.04375781   3.68299577   0.02951724
H    0.47698728   2.85008856   0.21609071
H    0.06493620   3.75607451  -0.92465404
O    0.73473124   1.47799354   3.12832429
H   -0.10815733   1.02960112   3.19698975
H    0.86574289   1.60003180   2.18801878
O   -1.83005715   1.51714799  -2.30618726
H   -2.10767324   1.85232445  -1.45365110
H   -1.17909459   0.84637022  -2.09994281
O   -2.32912144   2.36727865   0.24663843
H   -1.56432523   2.94280652   0.25592714
H   -1.99745348   1.52248882   0.55087247
O   -2.22228757  -3.07853340   2.04738695
H   -1.81639192  -2.39377066   2.57897000
H   -2.59855235  -2.61172639   1.30123155
O   -0.03773559  -3.73499377   0.50484399
H   -0.79092778  -3.62042408   1.08433270
H    0.44036543  -2.90803039   0.56634867
O    0.10766793   3.44044691  -2.69311376
H    0.92330586   2.96308280  -2.54115947
H   -0.57181648   2.76650504  -2.67480673
S    0.26398363  -0.06674313   0.08769312
O    1.06047847   1.16619074   0.34375956
O    1.01142399  -1.25403460   0.58946188
O   -1.04426481   0.03148266   0.79404838
O    0.02829684  -0.21061135  -1.37649734
