53
Energy:  -1386.84747814
O   -0.64581016  -1.34897623   2.94396330
H   -1.03456960  -1.05519619   2.12007542
H    0.00889025  -1.99662905   2.68291725
O   -3.27191742  -2.28796012  -0.22465097
H   -2.72080836  -1.61086423   0.16784339
H   -2.65339708  -2.89556774  -0.63020913
O   -2.85844757  -1.29055780  -2.77128877
H   -3.23692248  -1.51094961  -1.92016244
H   -2.13017853  -0.70443812  -2.56557104
O    2.61527664   2.29730002  -2.25356736
H    1.92807414   2.68619686  -1.71250930
H    2.96542018   1.58358821  -1.72041934
O    1.10353477   0.48639947  -3.68415405
H    0.35019440   0.37811938  -3.10364948
H    1.61991768   1.18353936  -3.27970812
O    2.31443262  -1.69040823  -2.50122487
H    1.63488399  -1.89835847  -1.85997436
H    1.92453209  -1.01209003  -3.05267191
O    1.34450706  -2.79267367   1.66250628
H    2.11388395  -2.22960372   1.74761365
H    0.97667522  -2.56882524   0.80762415
O    3.29479081   0.10014933  -0.69387304
H    3.15374436  -0.59242974  -1.33937438
H    2.41944605   0.30205201  -0.36336024
O    3.33525549  -0.89516222   1.91520225
H    2.67678681  -0.30279968   2.27818637
H    3.44160236  -0.60885563   1.00803593
O   -0.18459378   3.04480786   2.14790087
H    0.30560648   2.28544810   2.46303309
H    0.12990621   3.17933941   1.25390822
O    1.19268340   0.69018167   2.67395569
H    0.56286237   0.03711524   2.97901561
H    1.10130665   0.68497744   1.72114141
O   -1.99371431   2.54637648  -1.21356928
H   -2.33415967   2.32735081  -0.34618439
H   -1.66403350   1.71659418  -1.55853848
O   -2.51353745   1.78058515   1.46266445
H   -1.73449695   2.25423234   1.75418820
H   -2.17888074   0.94401286   1.13958004
O   -2.66696646   0.40878378   3.90675888
H   -2.03323137  -0.27988506   3.70589350
H   -2.73490212   0.91580623   3.09771943
O   -1.40529618  -3.47558301  -1.87979210
H   -1.82716051  -2.81525366  -2.42954430
H   -0.69893915  -3.00434209  -1.43795098
O    0.59362964   3.09700476  -0.49992182
H    0.74832265   2.17878904  -0.27815209
H   -0.29190884   3.11028456  -0.86307068
S   -0.26641371  -0.38750193  -0.45069313
O   -0.77641456   0.13353414  -1.75012399
O    0.79620477   0.52035122   0.06578011
O   -1.38479774  -0.45248710   0.53169891
O    0.29935267  -1.75140601  -0.65012753
