53
Energy:  -1379.99495839
O   -0.78294734  -0.80210477   3.06588432
H   -1.06956910  -0.48034947   2.21116018
H   -0.25851616  -1.57771597   2.86680880
O   -3.17354548  -1.95411179   0.25492532
H   -2.58269884  -1.21741523   0.41116321
H   -2.60755910  -2.64822840  -0.08285184
O   -2.81689985  -1.44787173  -2.49576073
H   -3.19086893  -1.46539252  -1.61481124
H   -2.04198945  -0.89157714  -2.41650137
O    2.32772465   2.86137927  -2.83652706
H    1.71739608   3.13163163  -2.15045524
H    2.78826418   2.10886543  -2.46523455
O    1.15887238   0.49408317  -3.81316559
H    0.46145601   0.27142634  -3.19650831
H    1.33911759   1.41948256  -3.64769814
O    3.05960933  -1.92927415  -0.37713705
H    2.10592459  -2.01028540  -0.38956404
H    3.24283664  -1.16652651  -0.92565837
O    0.83332426  -2.77202379   2.13942893
H    1.68465317  -2.36118240   2.29002871
H    0.61049234  -2.53904022   1.23815404
O    3.04533506   0.41727392  -1.81477400
H    2.50948012   0.18912345  -2.57440463
H    2.41417152   0.55448923  -1.10834893
O    3.09970791  -1.24924602   2.29502410
H    2.58557434  -0.44475890   2.36357334
H    3.15684619  -1.41813878   1.35457618
O    0.05449848   3.35130763   1.95791589
H    0.30531462   3.42042439   1.03675033
H    0.49310387   2.55873491   2.26724683
O    1.32980862   0.91372570   2.53604001
H    0.60197674   0.37737242   2.85039293
H    1.27231643   0.86089579   1.58202979
O   -1.77216067   2.50780715  -1.76237343
H   -2.11431667   2.47467712  -0.86902942
H   -1.45823666   1.61964254  -1.93221807
O   -2.32065568   2.36007499   0.93425057
H   -1.59119091   2.77912233   1.39088207
H   -2.05773787   1.44333241   0.85246360
O   -3.24895521  -2.11118016   3.03675364
H   -2.41849404  -1.66080733   3.19080043
H   -3.33949010  -2.12841367   2.08400064
O   -1.45395089  -3.49997296  -1.26582389
H   -1.86236101  -2.92430773  -1.91238600
H   -0.70443901  -3.00154287  -0.94019950
O    0.63212038   3.21280914  -0.72848253
H    0.86301446   2.31840360  -0.47756721
H   -0.22343774   3.13058951  -1.14978061
S   -0.13255659  -0.28601631  -0.42367112
O    0.98474432   0.64158696  -0.09006829
O    0.34559534  -1.69399377  -0.32843346
O   -1.25463454  -0.07669443   0.53404776
O   -0.60593151  -0.01496400  -1.81023047
