53
Energy:  -1376.93914573
O   -0.89503509  -0.94939531   3.26079196
H   -1.04297907  -0.61771291   2.37516720
H   -0.11205213  -1.49477905   3.18512103
O   -2.89591543  -1.82684799   0.13791340
H   -2.26998646  -1.15360972   0.40473731
H   -3.16121689  -1.57125493  -0.74555656
O   -3.17047368  -0.91063239  -2.45449407
H   -2.38126732  -1.41921934  -2.64083914
H   -2.86372387  -0.00612241  -2.39126359
O    2.37139109   2.37644564  -1.57434735
H    2.00586481   2.02538197  -0.76232723
H    2.51059830   1.60743575  -2.12704707
O    2.45659238  -0.04035173  -2.82955310
H    2.94590969  -0.57290010  -2.20250233
H    1.56201670  -0.03016758  -2.48916733
O   -0.78271807  -2.19094344  -2.69237080
H   -0.70713531  -2.79048715  -1.95003232
H   -0.38780117  -1.37555267  -2.38348510
O    2.06191703  -1.40780546   2.85809138
H    1.79706845  -0.52029989   3.09979560
H    1.74416223  -1.51737787   1.96184498
O    3.53118970  -1.46281510  -0.71703827
H    2.63910881  -1.65134477  -0.42569638
H    3.85089269  -0.80419973  -0.10039604
O    3.72253531   0.32317394   1.36952362
H    3.39691610  -0.36435091   1.95048279
H    2.93296040   0.74738806   1.03359851
O   -0.05998508   3.56927937   0.48592770
H    0.42046006   2.75097279   0.61154077
H   -0.02410824   3.72622377  -0.45763637
O    1.02643438   1.06022870   3.31446678
H    0.19798040   0.58816184   3.39842341
H    1.09534005   1.25987839   2.38085880
O   -1.89967678   1.57175537  -2.18481813
H   -2.20558897   1.84313927  -1.31937006
H   -1.15550021   0.99663516  -2.00685795
O   -2.43144451   2.22123849   0.41076845
H   -1.69893468   2.82700630   0.52349183
H   -2.06826240   1.36253268   0.62745934
O   -3.31376191  -2.29446799   2.87891691
H   -2.50767020  -1.85452343   3.14891095
H   -3.33141998  -2.19980715   1.92657277
O   -0.64958999  -3.44166604  -0.25730203
H    0.03487812  -2.82826056   0.01003477
H   -1.46887208  -2.99409760  -0.04589914
O    0.00954169   3.60566750  -2.24556447
H    0.84812018   3.15737300  -2.13579194
H   -0.62978467   2.89938376  -2.33860716
S    0.32821890  -0.07649828   0.05732115
O    1.15172734   1.07089956   0.53209692
O    1.02696040  -1.35389383   0.37374007
O   -0.99642407  -0.05286631   0.73912944
O    0.13061193   0.02986745  -1.41568185
