53
Energy:  -1375.84331839
O   -3.10997345   0.10451910  -2.36088149
H   -2.78713723  -0.09522296  -1.48218260
H   -2.60996966  -0.47331919  -2.93736304
O   -1.26622934  -2.04552203  -2.64166789
H   -1.45510795  -1.65037093  -1.79054374
H   -0.31447782  -2.14683929  -2.65331675
O   -2.16970274   1.73479609   2.72953252
H   -1.76903095   1.86719752   1.87036791
H   -1.57409784   1.13803338   3.18270017
O   -1.49649977  -1.44384480   3.20128499
H   -2.30422317  -1.15949567   2.77354635
H   -0.79676574  -1.08115936   2.65808760
O    2.25854988   3.41333065  -1.43736276
H    1.57073452   3.05932352  -2.00111875
H    2.66594417   2.64226565  -1.04274839
O    0.78232211  -3.80173614   0.08792714
H    1.30184645  -3.30599867   0.72083366
H   -0.12446549  -3.66524683   0.36240621
O   -1.69919791  -3.14358399   1.00295561
H   -1.57912457  -2.80606759   1.89059119
H   -1.73793606  -2.36172935   0.45210670
O    2.18153976  -2.13337579   1.68885923
H    2.78263155  -1.89256077   0.98392758
H    1.49627826  -1.46574889   1.65848079
O    2.01588543   1.59883450   2.24144490
H    1.57683651   2.36976137   1.88208484
H    1.39035144   0.88549471   2.11461660
O   -2.17278239   2.64632542  -1.83991242
H   -2.59186292   1.83786762  -2.13486895
H   -1.77199959   2.41682705  -1.00149994
O    0.31716610   2.08877548  -2.83293782
H    0.47002639   1.32734383  -2.27339566
H   -0.55712632   2.39346056  -2.59001474
O   -3.54352273  -0.39719002   1.72295080
H   -3.23728595   0.45119610   2.04340651
H   -3.00425929  -0.57121587   0.95149647
O    0.76786764   3.61673561   0.86126382
H    0.07920138   2.97989653   0.67045866
H    1.27583449   3.67067871   0.05176294
O    1.44504544  -2.16533401  -1.99651014
H    1.17347796  -2.78308395  -1.31763756
H    1.15197738  -1.31235216  -1.67594045
O    3.70002753  -1.55020333  -0.53059248
H    3.00876453  -1.81583134  -1.13708162
H    3.58879000  -0.60386107  -0.43951891
O    3.00704039   1.06801978  -0.24362640
H    2.17681031   0.73673621  -0.58597280
H    2.83121911   1.24759509   0.67999226
S   -0.42842505   0.18036152   0.14737294
O   -1.57302652  -0.70290832  -0.21293508
O    0.58995359   0.14191744  -0.93960774
O   -0.91529530   1.57762425   0.32262775
O    0.18466803  -0.29518728   1.41940684
