53
Energy:  -1379.52980235
O   -0.34430190   0.92150492   3.52457859
H   -0.74629918   0.73997127   2.67506370
H    0.32642502   0.24559040   3.62203020
O   -3.44371521  -0.99169284   0.98059627
H   -2.64737602  -0.47032278   1.08183363
H   -3.60562672  -1.00181377   0.03724369
O   -3.54672596  -1.09329162  -1.77354716
H   -2.88461735  -1.78453632  -1.77852929
H   -3.05982355  -0.29316771  -1.97092909
O    2.28414584   1.35972752  -2.15536120
H    2.02558929   1.16913216  -1.25366626
H    2.07141510   0.56200804  -2.63973823
O    1.50444963  -1.04743458  -3.13872240
H    2.16997195  -1.48580633  -2.60849406
H    0.76883222  -0.91653598  -2.54042111
O    1.06234553  -3.76876356  -0.52802496
H    0.94024060  -3.08244040   0.12793445
H    0.27652783  -3.72275409  -1.07263998
O    1.69655241  -0.92718905   3.34793231
H    2.23590244  -0.20521994   3.02529629
H    1.30877177  -1.30782756   2.55991433
O    3.11949552  -2.10938740  -1.20678935
H    2.46427664  -2.77530845  -0.99829661
H    2.95515887  -1.40606703  -0.57864466
O    2.91119581   1.28008049   2.25796279
H    2.41649220   2.01700046   2.61636081
H    2.42727976   1.02561287   1.47227625
O    0.59031867   3.27283149   0.15469837
H    0.85849028   2.35977680   0.25788246
H    0.50265129   3.39179721  -0.79102539
O    1.06638789   3.20343012   2.94678771
H    0.50436918   2.46643539   3.18596461
H    0.87571761   3.36040226   2.02199777
O   -1.93390467   1.19606098  -2.16435524
H   -2.11520713   1.70059059  -1.37137911
H   -1.31367032   0.52303984  -1.88402731
O   -2.09645257   2.59427882   0.18346183
H   -1.26146585   3.06228318   0.18249018
H   -1.89619963   1.74698369   0.58123258
O   -1.76807190  -3.13677098   1.22856289
H   -0.92476380  -2.69059747   1.30597411
H   -2.41600589  -2.43308579   1.26378427
O   -1.51195334  -2.99519139  -1.48613067
H   -1.67697175  -3.18538579  -0.56264442
H   -1.02761189  -2.16961043  -1.47830123
O    0.16081907   3.01097325  -2.55217521
H    0.93464274   2.44861886  -2.51773204
H   -0.57848746   2.40324241  -2.53426064
S    0.10760850  -0.33415862   0.25984114
O    1.23939575   0.63491656   0.25270487
O    0.52960911  -1.58558371   0.94973296
O   -1.05267694   0.26259352   0.97937197
O   -0.28589394  -0.64856085  -1.14244524
