12
Energy:    -19.37466029
C   -1.57536532   0.97002711  -1.66133186
H   -2.57613374   0.87655308  -2.02824515
H   -0.97600367   0.17511565  -2.05348039
H   -1.16826576   1.90984882  -1.97101587
C   -1.58355872   0.89599726  -0.12313407
N   -1.58965908   0.84087868   1.02212411
C    1.63376687  -1.01494883   1.65426807
H    1.32797763  -0.12819654   2.16911125
H    2.65944850  -1.22164636   1.87821544
H    1.02696043  -1.83780288   1.96985678
C    1.47100736  -0.80942421   0.13674740
N    1.34982550  -0.65640179  -0.99311571
