12
Energy:    -19.38621859
C   -0.94465658  -2.20900276   0.01494875
H   -0.61394657  -3.20578084   0.21980122
H   -0.55935047  -1.89288850  -0.93189341
H   -2.01412884  -2.18599194  -0.00951900
C   -0.43594303  -1.26247237   1.11807646
N   -0.05718267  -0.55773747   1.93940518
C    0.79112140   2.28515043  -0.05009091
H    1.69756383   2.83443703  -0.19687824
H    0.76400194   1.90200181   0.94858861
H   -0.04700969   2.93153676  -0.20699879
C    0.73183576   1.11572071  -1.05035055
N    0.68769492   0.24502713  -1.79508931
