12
Energy:    -19.86933031
C   -0.06062856  -2.48906585   0.37625227
H   -0.27971057  -3.46103426  -0.01385112
H   -0.93456996  -2.08770556   0.84533163
H    0.72817556  -2.56287336   1.09544599
C    0.37722057  -1.56158741  -0.77251745
N    0.70321916  -0.87103756  -1.62782873
C   -0.02968456   2.51271403  -0.38045520
H    0.55494333   3.34604715  -0.05080946
H   -0.99060671   2.85618677  -0.70225355
H    0.46714758   2.02842015  -1.19502034
C   -0.20316929   1.51601268   0.78061734
N   -0.33233656   0.77392321   1.64508863
