12
Energy:    -19.86112262
C   -0.11981430   1.90749591  -1.72078404
H   -0.50669975   2.24237966  -0.78106456
H   -0.92882710   1.74405888  -2.40172877
H    0.53839551   2.65031739  -2.12062802
C    0.65405652   0.59163083  -1.51774946
N    1.23023851  -0.38809054  -1.36658099
C    0.11619601  -1.91367022   1.68491678
H    0.49937340  -2.03327781   2.67676823
H    0.92721019  -1.91267050   0.98695253
H   -0.54766605  -2.72188803   1.45915093
C   -0.64708337  -0.57973171   1.58687279
N   -1.21537957   0.41344615   1.51387458
