12
Energy:    -19.76326558
C   -2.39662135  -0.32579098  -0.16952382
H   -2.51180065  -1.38567624  -0.26050262
H   -1.98238380   0.06694981  -1.07454372
H   -3.35143102   0.12265308   0.00973998
C   -1.45282780  -0.01102529   1.00596600
N   -0.75013061   0.22333206   1.88117160
C    2.40311578   0.22336049   0.17852084
H    2.82697928   1.20016467   0.28384654
H    3.18495401  -0.48929594   0.01805628
H    1.86637405  -0.03041290   1.06869299
C    1.44031174   0.20842915  -1.02330504
N    0.72346036   0.19731209  -1.91811903
