12
Energy:    -19.15452743
C   -2.29228615   0.88177063  -0.43106760
H   -3.05085075   1.53643339  -0.05570565
H   -2.75049558   0.06061657  -0.94160577
H   -1.66285387   1.41767244  -1.11042269
C   -1.44695159   0.35009468   0.74125069
N   -0.81756159  -0.04576223   1.61409494
C    2.24946643  -0.86144562   0.46676606
H    2.97305726  -0.12960725   0.75956138
H    2.74102032  -1.79240502   0.27548493
H    1.53457547  -0.99039752   1.25238774
C    1.52947369  -0.38926500  -0.81004870
N    0.99340637  -0.03770507  -1.76069532
