12
Energy:    -19.21783756
C   -1.41746127   2.07874415  -0.65315579
H   -2.00771729   2.61474979   0.06042389
H   -1.70975541   2.36219017  -1.64266152
H   -0.38320748   2.31055307  -0.50658561
C   -1.63580146   0.56571209  -0.46697972
N   -1.79836565  -0.56080906  -0.32836317
C    1.38669607  -2.04399935   0.77181795
H    2.14789897  -2.72226290   0.44711981
H    0.43775686  -2.36723674   0.39774433
H    1.36015760  -2.02309402   1.84128406
C    1.69509210  -0.63267220   0.23829422
N    1.92470696   0.41812501  -0.15893844
