12
Energy:    -19.51514873
C    0.78495266  -1.14017361   1.89340124
H    0.26893583  -1.96978770   1.45709024
H    0.93169813  -1.32070635   2.93780192
H    1.73461893  -1.01946964   1.41542257
C   -0.05038365   0.13996148   1.70613831
N   -0.67232950   1.09308024   1.56671254
C   -0.73486439   1.17188282  -1.86726049
H   -1.42135834   1.29305332  -1.05550687
H   -1.26516913   1.23111690  -2.79471253
H    0.00341034   1.94541220  -1.82850727
C   -0.04614637  -0.20107141  -1.75651672
N    0.46663549  -1.22329824  -1.67406294
