12
Energy:    -19.07904411
C   -0.64027906  -2.40100921  -0.02341567
H    0.12483376  -2.43084033  -0.77081961
H   -1.58116204  -2.18438873  -0.48462480
H   -0.69456896  -3.34917594   0.46946520
C   -0.30916395  -1.30519302   1.00670552
N   -0.06263370  -0.48930806   1.77367756
C    0.43177175   2.40928215   0.01975013
H    0.97360864   3.28873933  -0.25929834
H    0.74376563   2.09185989   0.99278765
H   -0.61606710   2.62545035   0.03403823
C    0.71099887   1.28924943  -0.99964130
N    0.91889614   0.45533415  -1.75862456
