12
Energy:    -19.21122080
C   -2.26686145   0.43724663   0.40193624
H   -3.24635185   0.80803718   0.18281730
H   -1.71896426   1.17736237   0.94685498
H   -2.34585578  -0.45303393   0.99020447
C   -1.53199578   0.11970994  -0.91364078
N   -0.98485488  -0.11671056  -1.89314767
C    2.29490316  -0.31282399  -0.39819072
H    3.16772754  -0.92300501  -0.29447519
H    2.58724037   0.69648043  -0.60003878
H    1.69736115  -0.67951876  -1.20650846
C    1.47795384  -0.35949704   0.90642242
N    0.86969793  -0.39424726   1.87776620
