52
Energy:  -1526.82361167
O    0.96403003   1.16515978  -2.96040211
H    1.00814112   0.49225086  -2.28107917
H    0.15794399   1.64522538  -2.77068086
O   -0.61789341  -2.39695129  -2.25185589
H   -0.68769853  -1.57491133  -1.76645976
H    0.30739847  -2.63417774  -2.19028975
O   -3.02672778  -0.84543406   0.34172247
H   -2.88398368  -0.67006824   1.27183149
H   -2.19783749  -0.61233597  -0.07641389
O   -0.03502949  -0.90192872  -4.49953549
H   -0.36315853  -1.44137230  -3.78011642
H    0.34391533  -0.13465254  -4.07067661
O    1.89535873   2.07640833  -0.51181786
H    1.80181974   1.94508602  -1.45534145
H    1.38602043   1.36743568  -0.11918044
O    2.39476151   0.56951981   2.48149752
H    3.11477494   0.67880982   1.86031461
H    1.61140376   0.51650383   1.93398334
O   -1.26688776   2.24424524  -1.81885197
H   -1.07938498   1.37107336  -1.47440252
H   -0.87315541   2.84242285  -1.18372188
O   -2.39964898  -0.29339927   2.93276953
H   -1.68010485  -0.90856552   2.79114120
H   -2.08208132   0.53448091   2.57221852
O    3.09768854  -1.88164057   0.28781216
H    2.35596590  -1.45079815  -0.13698683
H    2.80079401  -2.04291736   1.18339872
O    4.10999636   0.67259874   0.35549989
H    3.84188780  -0.24121441   0.25908836
H    3.38656202   1.17567853  -0.01837887
O   -1.87683828  -3.30379378   0.09277009
H   -1.36079477  -3.11633512  -0.69131548
H   -2.41791291  -2.52388313   0.21609682
O   -0.43770229  -2.00892135   2.12866967
H   -0.13754214  -1.29239403   1.56945206
H   -0.86159945  -2.62125181   1.52734243
O   -1.57566444   1.86285795   1.48271363
H   -2.27715224   1.83027186   0.83226389
H   -0.90214917   1.27599172   1.13891564
O   -3.55701231   1.72967957  -0.41484094
H   -3.49486604   0.78747578  -0.25792788
H   -2.85177743   1.91682229  -1.03439983
O   -0.12686621   3.74836944   0.15365158
H   -0.63034294   3.19539700   0.75111665
H    0.66937867   3.24749802  -0.02341833
O    2.19789403  -2.09919171   2.88382100
H    2.33306497  -1.15175534   2.86579350
H    1.27289482  -2.21382778   2.66595205
C    0.16296445  -0.51306149  -0.19997466
O    1.25664320  -0.56260606  -1.02360717
O   -0.92831648  -0.09469686  -0.91494022
O    0.40253369   0.36509963   0.82433966
