52
Energy:  -1526.79369808
O    1.62428118   0.63093909  -2.89650126
H    1.45589522   0.06464115  -2.14338463
H    0.88493801   1.23874398  -2.90979549
O    0.10896391  -3.20748299  -1.49956441
H   -0.19831219  -2.82313959  -2.32059632
H    0.50335412  -2.47580789  -1.02486475
O   -3.01462417  -0.65565216  -0.31318413
H   -3.10176181  -0.35930917   0.59280688
H   -2.10108367  -0.47793970  -0.53700074
O   -0.47734350  -1.25133690  -3.37017377
H   -0.63656864  -0.89687523  -2.49539601
H    0.34890554  -0.85299258  -3.64379060
O    2.11590589   1.86944408  -0.48278825
H    2.15943567   1.56885390  -1.39052310
H    1.52735271   1.24917653  -0.05254973
O    1.62204230   0.37091503   3.13112335
H    1.12986233   0.48314688   2.31786156
H    1.42254486  -0.52243932   3.41103518
O   -0.57846792   2.20897516  -2.35115239
H   -0.56698817   1.38810867  -1.85893469
H   -0.28687703   2.86963495  -1.72287280
O   -2.96367253   0.25315528   2.25994038
H   -2.29467896  -0.41823275   2.39379688
H   -2.48700443   0.99670907   1.89095917
O    2.94740684  -1.19391438   1.33938279
H    2.69189500  -0.51153512   1.96011145
H    2.32859328  -1.10312087   0.61477382
O    4.52801340   0.78439358   0.27563308
H    4.16301818  -0.03140737   0.61838538
H    3.76435425   1.29328892   0.00345285
O   -2.07770147  -3.18514951   0.19498244
H   -1.30699007  -3.24725306  -0.36926833
H   -2.48630724  -2.35419363  -0.04747479
O   -1.00869811  -1.64022219   2.21493090
H   -0.53797116  -1.03265368   1.64439738
H   -1.37144104  -2.29622513   1.61969182
O   -1.57539924   2.11235358   0.83425273
H   -2.13761052   2.05058116   0.06202576
H   -0.91082061   1.43628607   0.70196582
O   -3.15835827   1.88579725  -1.40312717
H   -3.18760020   0.95842133  -1.16785994
H   -2.33716329   1.98542931  -1.88473294
O    0.23669033   3.80651684  -0.29719833
H    0.99518965   3.22266713  -0.30268870
H   -0.42272327   3.33848340   0.21500304
O    1.37536052  -2.39761727   3.26226598
H    0.49291143  -2.25050859   2.92186255
H    1.95267871  -2.20652507   2.52306415
C    0.13448461  -0.52955703  -0.15366547
O    1.32556832  -0.87957350  -0.73311903
O   -0.68621894   0.02823841  -1.09833935
O    0.36319129   0.37842702   0.84685360
