52
Energy:  -1527.53934880
O    0.87981835   1.43726136  -2.80721524
H    0.76486225   0.74105064  -2.16044821
H    0.22582414   2.09495691  -2.57065661
O   -1.21527668  -2.05135123  -2.17324914
H   -2.05848689  -1.79270836  -1.80131868
H   -0.58197712  -1.46016854  -1.76622758
O   -3.10673405  -0.57575255  -0.52000482
H   -3.16386643  -0.75723287   0.41809573
H   -2.22495118  -0.22430231  -0.64318575
O   -0.56833354  -0.39756518  -4.35331895
H   -0.83874130  -1.00947914  -3.66872213
H   -0.04919243   0.26245560  -3.89386610
O    2.01382089   1.89480262  -0.32336235
H    1.86092522   1.90132695  -1.26824975
H    1.42394451   1.21894019   0.01053537
O    2.54275484   0.31626293   2.53285931
H    3.22135976   0.28004203   1.85875601
H    1.72032894   0.34682405   2.04407152
O   -1.03149864   2.99196588  -1.46358427
H   -0.95906481   2.06188752  -1.24924939
H   -0.60263245   3.44032262  -0.73469342
O   -2.81850924  -0.72035453   2.21899422
H   -2.07626560  -1.32358839   2.18137599
H   -2.42565543   0.14883067   2.13890160
O    2.41030577  -2.31699135   0.26341241
H    1.82269579  -1.64295101  -0.07807841
H    2.27836572  -2.29265580   1.21116315
O    3.98222620   0.01367849   0.22138130
H    3.53573844  -0.82742290   0.12427845
H    3.33805379   0.66167483  -0.06388084
O    0.03843582  -3.73878248  -0.26107787
H    0.90451378  -3.34082672  -0.17291876
H   -0.40223235  -3.20969072  -0.92598787
O   -0.50030553  -2.16012557   1.95388390
H   -0.22636672  -1.34645199   1.53065266
H   -0.45881281  -2.81761524   1.25946506
O   -1.56540352   1.67665448   1.67624671
H   -2.22124134   1.89300070   1.01344741
H   -0.93106125   1.12724834   1.21581797
O   -3.42306609   2.18686068  -0.30656063
H   -3.40037523   1.24305905  -0.46453361
H   -2.68219522   2.53151445  -0.80511452
O    0.23957419   3.62681457   0.86811239
H   -0.36402835   3.00907039   1.28077199
H    0.94469030   3.07915480   0.52298646
O    1.99889284  -2.28173562   2.98202041
H    2.23946879  -1.35569824   2.95356305
H    1.07071059  -2.29584036   2.74854532
C   -0.03502787  -0.33899031  -0.22212067
O    0.97574801  -0.63209421  -1.09926410
O   -0.86732237   0.59518892  -0.78041614
O    0.49770547   0.15857230   0.93822705
