52
Energy:  -1522.87683859
O   -0.16765314  -0.97604136  -4.02580404
H   -0.92974386  -0.98856552  -3.44675938
H    0.57970841  -1.10442429  -3.44168044
O    1.94638632  -0.71158964  -2.28689674
H    1.95622149   0.20790225  -2.55273460
H    1.25681936  -0.76267667  -1.62499088
O   -2.18405249  -0.66538184  -2.23398013
H   -2.41672946   0.26273402  -2.20763197
H   -1.48424115  -0.75580926  -1.58720442
O   -0.45320561  -3.53847324   0.02551666
H    0.39698148  -3.52122245   0.46496651
H   -0.50255627  -2.70058387  -0.43463305
O    2.42411092   1.10969798   1.41023079
H    1.73589293   1.01829900   0.75126638
H    2.16833733   0.50806370   2.10940739
O    1.72669915  -0.84060617   3.22716817
H    0.79680837  -0.74955700   3.43512260
H    1.74361322  -1.37032926   2.43008649
O    0.24848695   1.53017915  -3.00189366
H    0.35901197   1.30676033  -2.07771830
H    0.02822741   0.70018148  -3.42476651
O   -0.98107800   1.85154253   2.56226774
H   -1.03474301   1.41548001   1.71185525
H   -0.22638716   2.43529803   2.48543605
O    3.78282602  -0.60014518  -0.26090803
H    3.40756695   0.06852907   0.31205552
H    3.18649398  -0.63757321  -1.00871756
O    1.19784999   3.46190861   2.08379266
H    0.71336728   3.61377803   1.27234702
H    1.72186146   2.68046236   1.90776542
O   -2.03901468  -1.80858754   1.45268135
H   -1.54864182  -2.54276344   1.08288136
H   -1.70168518  -1.03925479   0.99380471
O   -0.96305159  -0.61414760   3.69366731
H   -1.35227749  -1.11350106   2.97576678
H   -0.98842587   0.29493405   3.39507304
O   -0.17136052   3.44925552  -0.27271894
H   -1.05025031   3.37580680  -0.64472683
H    0.17845594   2.55888461  -0.30588425
O   -3.97929256  -1.86875445  -0.51686805
H   -3.43372354  -1.46284926  -1.19053509
H   -3.43131913  -1.86865463   0.26796120
O   -2.12766089   2.04061808  -1.73819584
H   -1.35532017   2.03130709  -2.30355851
H   -1.87084633   1.52669753  -0.97258248
O    1.82031636  -2.13553192   0.84784252
H    2.62455850  -1.75095884   0.49923105
H    1.11656999  -1.63148777   0.43929338
C   -0.07996228   0.05240962   0.07617367
O   -1.35574762   0.51555173   0.26280041
O    0.67917588   1.03000354  -0.51129391
O   -0.10951268  -1.05230413  -0.73408216
