52
Energy:  -1524.98570777
O    1.73290123   0.49401548  -2.77377084
H    1.56476834   0.02041074  -1.95911647
H    0.96736161   1.05753469  -2.88614092
O    0.23594251  -3.17306098  -0.70268256
H    0.03850203  -3.09472045  -1.63601630
H    0.46384313  -2.28422645  -0.43016405
O   -3.08246643  -0.61103671  -0.18873088
H   -3.20165434  -0.16511435   0.64982701
H   -2.16614746  -0.45344827  -0.41623315
O   -0.20135831  -1.61443447  -3.01870485
H   -0.45931598  -1.15108814  -2.22183607
H    0.59484279  -1.16895577  -3.30826382
O    2.13057744   2.04735815  -0.50003429
H    2.22824141   1.63216938  -1.35695429
H    1.50572096   1.49182786  -0.03401678
O    1.19757779   0.24435887   3.24082915
H    1.01043437   0.58598158   2.36647047
H    0.47955647  -0.36273401   3.42003708
O   -0.56174953   1.96892713  -2.49442174
H   -0.55543021   1.22293873  -1.89467745
H   -0.30176863   2.71429453  -1.95306306
O   -3.14529041   0.72027645   2.19515425
H   -2.47186785   0.09095832   2.45340333
H   -2.66622780   1.40852742   1.73359011
O    2.84832025  -1.17706495   1.60236351
H    2.39085102  -0.75765523   2.33109477
H    2.30826586  -0.98280874   0.83631023
O    4.32049985   1.02603060   0.82591662
H    3.93306999   0.20997735   1.14243999
H    3.60596458   1.46939754   0.36864542
O   -2.11566711  -2.99978121   0.76787088
H   -1.30125045  -3.11133946   0.27745055
H   -2.52733680  -2.22893381   0.37728903
O   -1.15418862  -1.09208309   2.52445129
H   -0.67110524  -0.60764997   1.85498371
H   -1.46898656  -1.87553171   2.07351630
O   -1.71525868   2.37240088   0.57796782
H   -2.23480497   2.17383330  -0.20105363
H   -1.02041146   1.71405547   0.57724450
O   -3.18365536   1.73997740  -1.65724064
H   -3.22034780   0.85947905  -1.28359887
H   -2.33602188   1.77751552  -2.10034357
O    0.15532174   3.89161905  -0.69931941
H    0.92829237   3.34077523  -0.57554805
H   -0.51786742   3.48691075  -0.15227335
O    2.43999639  -3.85266103   0.90413348
H    1.69900445  -3.72834669   0.31108311
H    2.65020612  -2.97157016   1.21352417
C    0.12722013  -0.33853831   0.04297096
O    1.33956687  -0.70944943  -0.47625799
O   -0.73665017  -0.04523104  -0.97918252
O    0.28947572   0.76719132   0.83594972
