52
Energy:  -1524.90419402
O    1.29843309   0.86597764  -3.11769174
H    1.30297485   0.49087644  -2.23706111
H    0.45130866   1.30627172  -3.18663493
O    1.27395032  -3.52618305  -1.35360332
H    0.87179604  -2.90915929  -1.96498329
H    1.77441668  -2.97560992  -0.75141191
O   -3.48245161  -0.43196274   0.07677713
H   -3.41494769  -0.35346042   1.02836131
H   -2.57516283  -0.47105986  -0.22576268
O    0.06878792  -1.62399872  -2.93918707
H   -0.34657527  -1.27888191  -2.14887089
H    0.59326338  -0.89580591  -3.27219244
O    2.74785160   2.57293716  -1.43414763
H    2.38252069   2.02314662  -2.12732548
H    2.00945783   2.74458035  -0.84972903
O    1.90337976   0.80109012   2.33226777
H    2.60628815   0.88371300   1.68781054
H    1.11233203   0.67100625   1.80924433
O   -1.13805255   1.79352522  -2.12618913
H   -1.10101780   0.92422624  -1.72721600
H   -0.63992123   2.35264397  -1.52996496
O   -3.09224379   0.02871083   2.75038427
H   -2.38844897  -0.61800081   2.69872429
H   -2.70236626   0.83516223   2.41294760
O    2.58222848  -1.73946155   0.31159848
H    1.89471657  -1.14823682   0.00498385
H    2.35673742  -1.91660399   1.22483787
O    3.90135994   0.74045421   0.40426439
H    3.50212006  -0.11930453   0.27139501
H    3.48310170   1.30264161  -0.24783776
O   -1.16874070  -3.13928495  -0.08787363
H   -0.34213100  -3.45037218  -0.45688987
H   -1.17253777  -2.19892792  -0.26660832
O   -1.04249722  -1.79995570   2.33777770
H   -0.75080061  -1.03224837   1.84607617
H   -1.19940766  -2.46737244   1.66982123
O   -2.03072800   2.24082536   1.39754267
H   -2.59911514   2.24117895   0.62736881
H   -1.40609567   1.53408275   1.23450531
O   -3.53615903   2.07765311  -0.88793267
H   -3.66919879   1.17886120  -0.58675934
H   -2.73794430   2.03854794  -1.41476840
O    0.33508311   2.76071597  -0.06256479
H   -0.36340016   2.96435236   0.55943618
H    0.40385303   1.80620761  -0.04216043
O    1.67078923  -1.84161415   2.91146180
H    1.81619182  -0.89947312   2.82508927
H    0.73484298  -1.95609139   2.74674562
C   -0.00451059  -0.38926532  -0.01190240
O    1.05400181   0.20849169  -0.64372233
O   -1.06241939  -0.47756215  -0.87800369
O   -0.36691858   0.35842702   1.07777499
