52
Energy:  -1522.79268118
O    0.98476916  -0.97830125  -2.58345143
H    0.95087280  -0.95337286  -1.62717665
H    0.19410098  -0.51729346  -2.86371471
O   -1.28660680  -3.19803459   0.00973329
H   -1.16666682  -2.25616274  -0.11160781
H   -0.42409652  -3.51763663   0.27461516
O   -2.68523786   0.18845901   1.30941728
H   -2.33348122   0.88358094   1.86556889
H   -1.93631882  -0.10655111   0.79142004
O    0.00620692  -3.51800225  -2.40469390
H   -0.63314565  -3.40039161  -1.70210734
H    0.36103522  -2.64186846  -2.55541986
O    2.13534325   1.36119038  -1.54432541
H    2.12575612   0.59742904  -2.12122103
H    1.49631239   1.15476673  -0.86222520
O    1.69281862  -0.92837494   2.99466305
H    1.03200067  -0.96015679   2.30289619
H    2.52495122  -0.84957875   2.52821011
O   -1.31219649   0.51417531  -2.60241610
H   -1.10392997   0.10827025  -1.76093051
H   -0.83976713   1.34658595  -2.59080244
O   -1.54224823   2.42325984   2.53577389
H   -0.63706777   2.14508838   2.67541924
H   -1.57349718   2.68550789   1.61572970
O    3.62710385  -0.44854071   1.11510894
H    3.68329558   0.50543362   1.06026995
H    2.81458508  -0.66769783   0.65902204
O    3.33863525   2.24487624   0.84455909
H    2.59180926   2.15879809   1.43707351
H    2.98925043   2.01614213  -0.01674387
O   -3.24657098  -2.48305745   1.83435346
H   -2.59288726  -2.84996197   1.23911357
H   -3.13102246  -1.53553144   1.76311557
O    1.15819811   1.69645076   2.50292874
H    1.39278160   0.87367954   2.93217219
H    0.82848863   1.43336878   1.64367827
O   -1.45058196   2.78358281  -0.18052469
H   -2.23771530   2.34333817  -0.50120771
H   -0.82125753   2.07652295  -0.03822583
O   -3.49981677   1.25914614  -1.09230547
H   -2.84696102   0.91112526  -1.69967082
H   -3.33830975   0.79181374  -0.27270327
O    0.05157219   2.88383154  -2.45918550
H    0.83410048   2.41506051  -2.16912507
H   -0.46277050   3.00876222  -1.66164192
O    1.41199400  -3.68266333  -0.04251830
H    1.11248985  -3.76717027  -0.94771866
H    1.40226268  -2.74055807   0.12652261
C    0.11777819  -0.30222994   0.39090853
O    1.24301708  -1.01236876   0.06456716
O   -0.92291342  -0.70542564  -0.40375679
O    0.34961807   1.03439719   0.19736683
