52
Energy:  -1522.42391419
O    0.98058547   1.24378911  -3.04891906
H    1.00985865   0.52802684  -2.41404955
H    0.26749971   1.80528140  -2.74483526
O   -0.17746576  -2.83805866  -2.16395252
H   -0.66079635  -2.31709298  -2.80521545
H    0.29098841  -2.19270326  -1.63451986
O   -3.02415460  -0.81255088   0.13253781
H   -2.93208742  -0.74641697   1.08300179
H   -2.16874611  -0.55342070  -0.21004024
O   -1.17414066  -0.57925033  -3.42209331
H   -1.14800149  -0.45056819  -2.47394275
H   -0.43058933  -0.07555293  -3.75323105
O    2.12443182   2.02352795  -0.65783834
H    1.96178870   1.92727847  -1.59619600
H    1.60144014   1.33244300  -0.25149718
O    2.49493880   0.75063246   2.53857376
H    3.24973781   0.80978752   1.95290237
H    1.73998442   0.69780653   1.95249770
O   -1.01934386   2.49956930  -1.63076332
H   -0.89969562   1.59131174  -1.35330279
H   -0.60406335   3.01778684  -0.94139801
O   -2.52290126  -0.56310318   2.79000728
H   -1.93424213  -1.31537023   2.72830999
H   -1.99278123   0.18059083   2.50343473
O    3.27208969  -1.71086572   0.00428309
H    2.59597448  -1.32567863  -0.55314940
H    2.82093056  -1.91296473   0.82394355
O    4.29346228   0.76999299   0.45566866
H    4.03791878  -0.13691432   0.28700183
H    3.61571384   1.29373090   0.02836608
O   -1.98229077  -3.32104907  -0.13381989
H   -1.31653100  -3.20526577  -0.81175057
H   -2.42760711  -2.47499528  -0.08779608
O   -1.02728178  -2.84164423   2.42005263
H   -0.13781206  -2.50290549   2.31840850
H   -1.30039466  -3.06931902   1.53134266
O   -1.34758865   1.63594347   1.61141095
H   -2.06389891   1.74772846   0.98640249
H   -0.70840505   1.09353519   1.14938342
O   -3.34704997   1.90025164  -0.26720953
H   -3.34810344   0.94331640  -0.24472210
H   -2.63144241   2.12554805  -0.86166658
O    0.22268663   3.62769798   0.50537006
H   -0.27920780   2.99959797   1.02481611
H    0.97080482   3.12680818   0.18031553
O    1.46450687  -1.76152759   2.06282194
H    1.90136178  -1.09404607   2.59183806
H    1.06442904  -1.27344647   1.34313701
C    0.20755003  -0.47149163  -0.30871595
O    1.18945575  -0.67636111  -1.24190834
O   -0.88884655   0.08391652  -0.91413737
O    0.67139497   0.37581968   0.66323653
