30
Energy:    -92.71403785
C    0.83289985   2.75395453   2.61006859
H    1.11126112   3.44154610   1.83894407
H    1.45668158   1.88624557   2.55643451
H    0.95323381   3.22124686   3.56508519
C   -0.63870525   2.34063655   2.42259410
N   -1.73438213   2.03290253   2.28301082
C    1.54648929  -3.80919291  -0.42245393
H    2.22285182  -4.63830156  -0.42602443
H    1.98642597  -2.99230615   0.11051027
H    1.34362591  -3.51005138  -1.42955864
C    0.23182216  -4.22214342   0.26509405
N   -0.74700727  -4.52960384   0.77700477
C   -1.89184576  -1.20981432   0.82534044
H   -2.11041714  -2.16808559   1.24823864
H   -2.12841519  -1.21810775  -0.21814661
H   -2.47643692  -0.46095962   1.31765021
C   -0.39540631  -0.89647410   1.00996674
N    0.71876088  -0.66317806   1.14742941
C    2.22699443   0.44557364  -1.98411717
H    2.11613433   1.50964511  -2.00314679
H    2.90454242   0.14371772  -2.75529213
H    2.61245544   0.14409536  -1.03257645
C    0.85660934  -0.21754480  -2.21632102
N   -0.16370466  -0.71126662  -2.38920734
C   -2.28490250   2.01907962  -1.26291150
H   -2.21953559   1.21018936  -1.96028077
H   -2.93108055   2.77654510  -1.65482865
H   -2.67861644   1.65933593  -0.33529472
C   -0.88231237   2.61085590  -1.03022767
N    0.16197973   3.05146024  -0.85698398
