30
Energy:    -93.88460889
C    1.06654064   2.60623288  -2.84340290
H    1.30128760   3.50175149  -3.37991057
H    0.00474406   2.47817789  -2.81040245
H    1.51175291   1.76770327  -3.33691403
C    1.61610199   2.70851497  -1.40843925
N    2.02527539   2.78466864  -0.34004358
C    2.20587310  -0.49108465   0.70523672
H    2.61331804  -1.40337830   1.08813239
H    1.30618729  -0.25297591   1.23322228
H    2.91563980   0.29894042   0.83558519
C    1.89279798  -0.65780816  -0.79335837
N    1.65969931  -0.78194140  -1.90913053
C   -1.08201292  -3.69062651   2.52017634
H   -1.09304170  -4.55834159   3.14615484
H   -0.80488408  -3.97178327   1.52566662
H   -2.05595641  -3.24771852   2.50730431
C   -0.06324570  -2.67456448   3.06911286
N    0.69527280  -1.91806011   3.47782106
C   -0.74330699   1.95479603   1.81290055
H   -1.17429897   2.65413434   2.49851854
H    0.31825240   2.08677356   1.78896959
H   -0.97180896   0.95840664   2.12896085
C   -1.32198170   2.19237898   0.40567281
N   -1.75283132   2.36927029  -0.64207221
C   -1.72601056  -0.66615902  -2.39009512
H   -2.71658718  -0.90034870  -2.71996379
H   -1.01780776  -1.23351064  -2.95706957
H   -1.54081607   0.37825952  -2.53077913
C   -1.58614474  -1.01572133  -0.89682899
N   -1.48200827  -1.27598635   0.21497553
