30
Energy:    -91.60468351
C   -0.77505538  -0.57167750   2.11022953
H   -0.49098216   0.11492363   2.88015257
H    0.05468412  -1.20398712   1.87228835
H   -1.59376059  -1.17058466   2.45071606
C   -1.19979031   0.21216333   0.85452504
N   -1.51602478   0.79576846  -0.08040404
C    0.37207403   3.63596092   0.24271278
H    0.77929106   4.62501478   0.21361056
H   -0.69080919   3.68438413   0.12942748
H    0.78945295   3.05484790  -0.55290118
C    0.71503015   2.97913669   1.59273612
N    0.97037657   2.49010119   2.59788986
C    0.56715984  -0.63420804  -2.70726075
H   -0.02138123   0.22948503  -2.47801445
H    0.16647836  -1.11940223  -3.57267397
H    1.57671093  -0.33687687  -2.90039247
C    0.53790188  -1.60689984  -1.51368854
N    0.51611801  -2.33111310  -0.62501977
C   -3.22723043  -2.13122868  -1.11693216
H   -4.07257679  -2.78546685  -1.06937029
H   -3.45863833  -1.21271811  -0.61924971
H   -2.38996100  -2.59496971  -0.63857742
C   -2.88255067  -1.84414244  -2.59015222
N   -2.62592092  -1.63039369  -3.68703152
C    3.08223263  -0.33321515   1.99960933
H    2.95639935   0.38857285   2.77940947
H    4.08743827  -0.69970652   2.01164223
H    2.40420658  -1.14652110   2.15360020
C    2.79244395   0.32597707   0.63832754
N    2.57668310   0.81677564  -0.37520864
