30
Energy:    -93.74753701
C    0.76152756   3.45533304   1.04407981
H    1.53709892   2.79500961   1.37174155
H   -0.14410883   3.22911185   1.56709588
H    1.04608970   4.46708991   1.24475745
C    0.53916681   3.27512069  -0.46908878
N    0.37360912   3.14094440  -1.59571158
C    2.75247786   0.66987283  -2.61647699
H    2.45719586  -0.28395206  -3.00108951
H    3.74577134   0.89479797  -2.94461696
H    2.08013103   1.42195233  -2.97316347
C    2.71553991   0.63651126  -1.07728155
N    2.68803793   0.61167206   0.06871942
C   -1.33421388   0.04404823  -1.64326290
H   -2.07897125   0.63190778  -2.13789183
H   -1.56341775  -0.99447646  -1.76086874
H   -0.37551560   0.24851301  -2.07220445
C   -1.31224658   0.39839334  -0.14474464
N   -1.29589092   0.66221939   0.97097032
C   -3.36864143  -1.58671084   2.67000642
H   -4.35375204  -1.24075267   2.43597603
H   -2.74761424  -0.75211490   2.92035403
H   -3.41478493  -2.25896270   3.50117867
C   -2.77822029  -2.31828742   1.45025292
N   -2.33862492  -2.86297944   0.54209100
C    1.05398450  -2.39001939   0.96735479
H    0.38827303  -3.16203161   1.29250945
H    0.70910843  -1.44488160   1.33159940
H    2.03560705  -2.58207825   1.34739380
C    1.09567250  -2.36276956  -0.57183966
N    1.12671111  -2.34248082  -1.71783990
