30
Energy:    -93.02340781
C   -1.58852386   0.31495855  -2.39726936
H   -0.67290511   0.56366033  -2.89193077
H   -2.37542948   0.24263290  -3.11868993
H   -1.47870848  -0.62290374  -1.89402588
C   -1.93182721   1.41093130  -1.37131296
N   -2.18743216   2.22693284  -0.60744179
C    1.10345198  -2.71981595  -2.53187663
H    0.18592663  -2.51145804  -2.02233332
H    0.93879531  -3.48026273  -3.26638869
H    1.45479654  -1.83040445  -3.01188004
C    2.15531349  -3.20530926  -1.51724190
N    2.93847219  -3.56678109  -0.76180023
C    0.74267273   3.41578784   0.53564699
H    1.58999927   4.06902758   0.55033556
H   -0.15528807   3.99696390   0.50736511
H    0.78985188   2.78985823  -0.33088943
C    0.74764553   2.54002100   1.80237810
N    0.75134801   1.88797279   2.74551700
C    1.78913428  -1.25342397   1.59203955
H    0.92088398  -1.82642591   1.84245995
H    2.00847767  -0.57214871   2.38743353
H    2.62055107  -1.91096867   1.44616229
C    1.52645600  -0.46288239   0.29680052
N    1.33088008   0.12571175  -0.66756380
C   -2.31537372   0.43754151   2.46537330
H   -3.30064068   0.27607914   2.85018377
H   -2.26988037   1.39623529   1.99236624
H   -1.60871082   0.40195293   3.26803143
C   -1.97986797  -0.65865677   1.43708091
N   -1.73006869  -1.47482622   0.67147050
