30
Energy:    -93.70846134
C    0.91786822   1.20964573  -2.44285866
H    1.93425283   1.18443856  -2.10935138
H    0.88362507   1.54855182  -3.45719053
H    0.49758299   0.22761926  -2.38054159
C    0.10921383   2.17153954  -1.55266857
N   -0.49286613   2.88771319  -0.88988159
C    1.50025024  -2.82641359  -2.26079656
H    1.53066342  -1.79521185  -1.97689837
H    0.79467320  -2.95717862  -3.05449716
H    2.47022634  -3.13404412  -2.59156675
C    1.07594023  -3.67961288  -1.05099823
N    0.76002215  -4.31485852  -0.15024838
C   -3.21972053   0.80962949   0.29278489
H   -3.27170224   0.47433320   1.30756294
H   -4.20354175   0.82833599  -0.12750665
H   -2.80051193   1.79364920   0.26331558
C   -2.33228405  -0.15097240  -0.52041896
N   -1.67154725  -0.86618417  -1.12588619
C    1.12865250   2.86757876   2.07454147
H    1.61777719   2.34728249   1.27770459
H    1.79922878   2.96286652   2.90288125
H    0.83616988   3.84048683   1.73868005
C   -0.11949587   2.07901155   2.51259101
N   -1.04879907   1.49188742   2.83873881
C   -0.10356706  -1.79818737   2.03839847
H   -0.40317550  -1.25389486   2.90953602
H    0.40844073  -2.69012275   2.33369220
H   -0.96873200  -2.05697491   1.46444923
C    0.83592909  -0.92537936   1.18566570
N    1.53542667  -0.27553413   0.55076740
