30
Energy:    -91.10565521
C    2.62348691   2.14727634   0.02802583
H    2.83499804   1.63152429   0.94135110
H    3.44653856   2.78411744  -0.22080843
H    2.47309654   1.43571993  -0.75681129
C    1.35093734   2.99710944   0.20123458
N    0.40346633   3.62984882   0.33019636
C   -1.72483401   0.92248464   1.24298309
H   -1.63246793   1.98835364   1.22589669
H   -2.40313516   0.63565850   2.01921593
H   -2.09754094   0.58161153   0.29969408
C   -0.34510369   0.29184659   1.50801123
N    0.68216824  -0.17769210   1.70533673
C   -0.29197359  -3.33982780   2.56956769
H    0.15767715  -2.61142446   3.21155131
H   -0.72375302  -4.11929908   3.16192749
H   -1.05514795  -2.87436125   1.98151592
C    0.78070756  -3.93625306   1.63938920
N    1.57936745  -4.38031878   0.94682903
C    0.95158202  -2.09430099  -1.56556869
H    1.23969393  -3.12066848  -1.65755501
H    1.59791001  -1.60353990  -0.86820740
H    1.02712851  -1.61576038  -2.51960784
C   -0.50204597  -2.01216877  -1.06375202
N   -1.58433808  -1.95101760  -0.69012670
C   -1.87015779   2.79934163  -2.25097314
H   -2.22396031   3.01258046  -3.23801577
H   -1.55297202   3.70722367  -1.78188629
H   -2.65809876   2.35784777  -1.67727349
C   -0.68340893   1.82118502  -2.33120278
N    0.20017954   1.09290296  -2.39093739
