30
Energy:    -93.80128491
C   -2.14507968  -0.52301784  -0.28530090
H   -1.28146977  -0.73793396  -0.87934565
H   -2.96406883  -0.26909457  -0.92536248
H   -2.40081350  -1.38368215   0.29672681
C   -1.84123414   0.65955634   0.65320652
N   -1.61500732   1.54003658   1.35196796
C   -0.38379437   1.06741405  -4.46767162
H    0.68062686   1.00462054  -4.55691623
H   -0.63773846   1.81709314  -3.74767664
H   -0.80659236   1.32591034  -5.41599679
C   -0.94176354  -0.29323153  -4.01060049
N   -1.35719694  -1.30629401  -3.67029026
C    1.12029271  -2.48208117  -0.21592257
H    0.12133961  -2.70828728   0.09363145
H    1.68189565  -3.38903578  -0.29919661
H    1.09649087  -1.98887675  -1.16517594
C    1.78400803  -1.56102087   0.82462050
N    2.27817425  -0.87524960   1.59935212
C    1.66935174   2.50257372   0.69061290
H    0.79903817   3.00204968   1.06206712
H    2.39268241   3.22823111   0.38220864
H    2.08568345   1.88978250   1.46265818
C    1.28169013   1.62125724  -0.51130212
N    0.99305844   0.96507705  -1.40618249
C   -0.06979110  -0.12706783   4.14793795
H   -0.36349386  -0.25846942   5.16841455
H   -0.44020033   0.81003144   3.78801983
H    0.99797721  -0.13842326   4.07981316
C   -0.65075548  -1.27032892   3.29527479
N   -1.08330987  -2.12153877   2.66042831
