30
Energy:    -94.19186554
C   -2.08075214   2.50038248   0.57103329
H   -1.38401470   3.00059202  -0.06869130
H   -1.88657313   2.76831907   1.58858112
H   -3.07690022   2.79066242   0.30964153
C   -1.92929699   0.97703745   0.40345868
N   -1.81653174  -0.15716217   0.27869177
C    0.37768010  -1.20648437   2.70431441
H   -0.64481639  -1.42521735   2.47725278
H    0.44033141  -0.25164480   3.18312054
H    0.76689252  -1.95927333   3.35755370
C    1.19896620  -1.18247419   1.40181195
N    1.81045103  -1.16459752   0.43203966
C    0.41174059  -0.26518215  -2.60524482
H   -0.28567098  -0.44587493  -3.39636264
H    0.12999240  -0.83476404  -1.74437694
H    1.39192791  -0.55637750  -2.92042284
C    0.41026169   1.23375880  -2.25201141
N    0.40916057   2.34978847  -1.98901308
C   -1.43122154  -3.44006199  -0.46112281
H   -1.52395975  -4.49493378  -0.30767799
H   -2.15524403  -2.92758552   0.13725698
H   -0.44830916  -3.12385863  -0.18041339
C   -1.67035616  -3.11451408  -1.94720262
N   -1.84840276  -2.87212887  -3.05365658
C    2.85799321   2.31496304   0.32258800
H    3.78471040   2.54319919   0.80632728
H    2.64063357   3.06839767  -0.40541622
H    2.93278307   1.36318405  -0.16055000
C    1.72940509   2.27194115   1.36950633
N    0.88911994   2.23990940   2.14898461
