30
Energy:    -93.50132504
C   -0.19023879  -0.58187778   3.47262501
H   -0.44506686  -0.47154074   4.50596357
H    0.74464224  -0.09751320   3.28213220
H   -0.10815479  -1.62182982   3.23458917
C   -1.28714824   0.05895114   2.60214929
N   -2.10384718   0.53607739   1.95404056
C   -2.05251990   3.36664885   0.30092035
H   -2.89828292   3.07258527   0.88667774
H   -2.11387403   4.41307305   0.08613870
H   -1.15397622   3.16658097   0.84634787
C   -2.04018052   2.57175874  -1.01801765
N   -2.03099329   1.97992692  -2.00002695
C    1.19666735   1.20621791  -2.73669876
H    0.29860930   0.74929455  -3.09671675
H    2.04334185   0.65487464  -3.08892310
H    1.25275451   2.21308049  -3.09444318
C    1.18989766   1.20823870  -1.19671497
N    1.18485732   1.20974328  -0.05012703
C   -1.49812193  -1.43096322  -1.06200026
H   -1.94244189  -0.55834048  -0.63071207
H   -2.23924217  -1.97521606  -1.60920108
H   -0.70891003  -1.13966130  -1.72320133
C   -0.92784837  -2.32282901   0.05646453
N   -0.50325378  -2.98686363   0.88921240
C    2.89141894  -2.24272806   0.36151610
H    2.32644666  -2.99422600   0.87235596
H    2.76471582  -1.30285052   0.85697107
H    3.92721239  -2.51108857   0.36521214
C    2.39614530  -2.12761515  -1.09211832
N    2.02739156  -2.04190836  -2.17441522
