30
Energy:    -94.09104761
C   -1.58499729   3.27272331   0.88670982
H   -1.03183712   3.02015151   0.00629998
H   -1.10070486   2.85469362   1.74438757
H   -1.63051693   4.33711161   0.98623168
C   -3.01264179   2.70596366   0.77618978
N   -4.07558801   2.28398534   0.69390259
C    1.48886513  -3.10016620   1.35719890
H    0.99855290  -3.89863788   0.84053937
H    0.75895920  -2.49440301   1.85236289
H    2.16566841  -3.50553756   2.08004777
C    2.27097775  -2.23937679   0.34777261
N    2.85329614  -1.59847994  -0.40379114
C    0.93515047  -0.92778778  -3.07448836
H    0.58410953  -0.91104061  -4.08512676
H    0.67690146  -1.86269930  -2.62266207
H    1.99841012  -0.80832075  -3.06421049
C    0.28177230   0.22174135  -2.28500768
N   -0.20469745   1.07761804  -1.69720343
C   -2.58589996  -0.78628012   0.24596991
H   -3.57961002  -1.14596891   0.41349451
H   -2.61319153   0.02597672  -0.45001363
H   -2.16787998  -0.44909969   1.17142533
C   -1.71805562  -1.92292960  -0.32540928
N   -1.07190606  -2.76921680  -0.75082705
C    2.26496812   1.71135163   0.64008043
H    1.81631435   2.26801212  -0.15599687
H    2.99486986   1.03984300   0.23855993
H    2.73791320   2.38486880   1.32389083
C    1.17949199   0.90728441   1.37955151
N    0.37130568   0.30861982   1.93012135
