30
Energy:    -91.87598128
C   -1.56240056   1.96870899   1.35022466
H   -2.43901006   2.47432580   1.00265077
H   -0.72774314   2.24034328   0.73829255
H   -1.36741780   2.24905077   2.36427066
C   -1.78265075   0.44656311   1.27172766
N   -1.94663703  -0.68674369   1.21328308
C    0.20843549  -1.08985267   4.10809231
H    0.30063264  -1.28061549   5.15690565
H   -0.82704524  -1.01737462   3.84842776
H    0.70151150  -0.17109092   3.86798404
C    0.85639898  -2.24194319   3.31788301
N    1.33883726  -3.09972694   2.72953626
C    1.78740134   2.44589987  -2.05578590
H    2.77398596   2.52406214  -1.64904075
H    1.07123403   2.46749537  -1.26109281
H    1.60902750   3.26635926  -2.71905678
C    1.65492730   1.12147271  -2.83034599
N    1.55629436   0.13537649  -3.40704118
C   -1.79509203  -1.11712515  -2.89952668
H   -2.09609224  -1.77774718  -2.11347477
H   -0.83718193  -1.41695700  -3.27021279
H   -2.51250335  -1.15601862  -3.69243739
C   -1.70801506   0.32119055  -2.35614325
N   -1.64318230   1.39208197  -1.95156958
C    1.13276108  -1.79445235  -0.35994335
H    1.02233529  -1.64615463  -1.41384757
H    0.23059391  -2.20968719   0.03826957
H    1.94545622  -2.46612019  -0.17749336
C    1.42046500  -0.44356046   0.32117158
N    1.63467365   0.56223996   0.82829260
