42
Energy:   -218.71843720
O   -0.43826102  -2.55106293  -1.33050806
H   -0.96636593  -1.88016860  -0.87287362
C   -1.20710642  -3.74214767  -1.38273504
H   -0.59746428  -4.48711063  -1.90124430
H   -2.14586049  -3.61800961  -1.94496976
H   -1.45009684  -4.13560287  -0.38327219
O   -1.15766744   1.21965069   2.01393557
H   -0.81837953   1.90171353   1.41552327
C   -1.91415414   1.86971384   3.02273661
H   -2.28880198   1.08701220   3.68794511
H   -2.77982812   2.41748805   2.61859641
H   -1.31056423   2.56811097   3.62331800
O    0.87131655   1.36578298  -2.05632932
H    1.51043551   0.89513970  -1.50095096
C    0.60210273   0.55211639  -3.18681788
H   -0.11935997   1.09717426  -3.80154440
H    0.15614102  -0.41775580  -2.91618264
H    1.49837478   0.36389138  -3.79841013
O   -0.04098982   2.92582932   0.11651439
H    0.18867987   2.51129906  -0.72837600
C    1.16204741   3.38521617   0.71166053
H    0.88509075   3.84927706   1.66214866
H    1.67730106   4.14198116   0.09961660
H    1.87022356   2.56897511   0.92382653
O    1.14168153  -0.43601985   2.18544901
H    0.33996556   0.10319719   2.25558998
C    0.74553917  -1.79822571   2.18500898
H    1.66053907  -2.39146120   2.10543483
H    0.09840738  -2.05261423   1.33102757
H    0.22842131  -2.09099887   3.11218228
O    2.54550611   0.04826539  -0.22096121
H    2.15546313  -0.14452655   0.64455656
C    2.95826048  -1.18345987  -0.79106688
H    3.39517363  -0.94795316  -1.76529924
H    2.12021557  -1.87955219  -0.95204375
H    3.72441960  -1.69555783  -0.18812973
O   -2.01591787  -0.65091828   0.05260834
H   -1.79720551  -0.07818663   0.80265276
C   -2.51659219   0.17404098  -0.98724800
H   -2.75792097  -0.48699750  -1.82407161
H   -1.77814385   0.91224001  -1.33729598
H   -3.43462517   0.71021456  -0.70000132
