42
Energy:   -216.99813150
O    0.36086754  -0.41817848  -2.42106187
H   -0.37597645   0.01455022  -1.96473954
C    0.06351163  -1.80295177  -2.50178465
H    0.90356447  -2.27506103  -3.01841727
H   -0.85143091  -2.00846302  -3.07921223
H   -0.03708450  -2.27470030  -1.51177906
O    2.79670675  -0.18784847  -1.04919954
H    2.00974347  -0.27576334  -1.60721660
C    3.87055373   0.22158454  -1.88091528
H    4.74880175   0.31575609  -1.23647961
H    3.69077425   1.19783545  -2.35777043
H    4.10218282  -0.51244702  -2.66852112
O   -1.65566682   0.85746394  -0.88702743
H   -1.22193683   1.51652208  -0.32493851
C   -2.56746895   1.54365176  -1.72981857
H   -3.04715374   0.78655884  -2.35607571
H   -2.07049910   2.26967147  -2.39215813
H   -3.35434444   2.06918539  -1.16641933
O   -0.28248603   2.62227406   0.77015294
H   -0.11466453   2.23875174   1.64374887
C    0.97426769   2.89032812   0.16911144
H    0.76675104   3.32181318  -0.81386500
H    1.57798675   1.98107821   0.02226039
H    1.57299662   3.61634445   0.74112655
O   -2.02566563  -1.67795898   0.32675789
H   -1.91774472  -0.81005399  -0.08979618
C   -3.39462681  -1.82385103   0.66909482
H   -3.49843276  -2.80656751   1.13704550
H   -4.05830127  -1.79212434  -0.20914602
H   -3.73589769  -1.06463321   1.39013560
O    2.06079330  -0.67012100   1.63736539
H    2.42772254  -0.48536783   0.76006700
C    1.44422531  -1.94673022   1.58592039
H    1.03631132  -2.13896546   2.58198113
H    2.15518831  -2.75301748   1.34673472
H    0.61444360  -1.98939093   0.86313431
O    0.32535113   1.06899498   3.03381136
H    0.98019226   0.44932156   2.67939463
C   -0.82361962   0.32016620   3.39665490
H   -1.55094241   1.03342710   3.79382697
H   -0.61512002  -0.42622663   4.17908893
H   -1.28387304  -0.19485735   2.53892833
