42
Energy:   -217.36928498
O   -0.17296521  -0.08565323  -2.66057113
H    0.29451204   0.54482630  -2.09278257
C    0.47743727  -1.34035906  -2.53718691
H   -0.06180568  -2.03860223  -3.18306516
H    0.44918567  -1.73472837  -1.50934839
H    1.52711842  -1.30964988  -2.86885506
O    2.18880301  -0.31680804   0.52032161
H    1.87952690   0.43506914  -0.00641576
C    3.18998503   0.16021387   1.40497886
H    3.52725074  -0.69934139   1.99055703
H    2.81163476   0.92231563   2.10414215
H    4.06174784   0.57615898   0.87602082
O   -1.40104682   2.73896347  -0.13200836
H   -1.71599117   2.20311625   0.61102668
C   -2.28223160   2.52278901  -1.22256591
H   -1.91290649   3.13369078  -2.05074657
H   -3.31535482   2.83440481  -1.00272657
H   -2.29908259   1.47270978  -1.55396747
O    1.10152965   1.82618312  -0.93893232
H    0.28125869   2.24634946  -0.64053818
C    1.73080818   2.71084841  -1.85211884
H    2.65289903   2.22209373  -2.17823620
H    1.99946843   3.67525993  -1.39330578
H    1.11596445   2.90959186  -2.74388426
O   -2.37475045  -1.80508681   0.99102245
H   -1.45805481  -2.11412373   1.04190022
C   -2.70933999  -1.67429173  -0.38137555
H   -3.74484400  -1.32544712  -0.42041500
H   -2.65008597  -2.62938343  -0.92641328
H   -2.08060723  -0.93643436  -0.90390684
O    0.37858555  -2.36852244   1.12522429
H    1.05968845  -1.70590350   0.93692066
C    1.03299158  -3.53865166   1.58899592
H    0.25131994  -4.27451089   1.79632617
H    1.59803226  -3.36959467   2.51900995
H    1.71666272  -3.96858789   0.84031312
O   -2.08039202   0.87594976   1.85726029
H   -2.33511296  -0.03126622   1.63253895
C   -0.92118602   0.80820977   2.67223667
H   -0.64796871   1.83843610   2.91610388
H   -0.06666847   0.34096905   2.15817131
H   -1.09601557   0.26879741   3.61629508
