42
Energy:   -217.11960061
O    0.43002234  -2.60778193   0.47628883
H    1.11632883  -2.14695823   0.98131179
C    0.92993473  -2.82103892  -0.83410914
H    0.14446265  -3.34097422  -1.38925426
H    1.83234166  -3.45211703  -0.84750615
H    1.15551190  -1.88091129  -1.36141581
O    2.19050784   1.46362810   0.32840804
H    1.50821725   2.15124966   0.33732010
C    2.39463674   1.07728440  -1.02125996
H    3.16596699   0.30238662  -1.01299568
H    2.75091551   1.90688525  -1.65181940
H    1.48961818   0.65318765  -1.48371070
O   -0.92334459  -0.06353022  -2.41035919
H   -1.31467347  -0.45853135  -1.61710066
C   -1.98323883   0.27358433  -3.29099065
H   -1.52481667   0.71715270  -4.17901172
H   -2.67611596   1.01266187  -2.85917704
H   -2.56639716  -0.60435784  -3.61024173
O   -0.07041097   3.16981071   0.29266047
H   -0.72437515   2.57756986   0.69266661
C   -0.49840506   3.45321162  -1.02985182
H    0.24939309   4.12129444  -1.46568259
H   -1.47297340   3.96509920  -1.06091598
H   -0.55916597   2.55175852  -1.65950868
O   -1.97061467  -1.30826578  -0.07325178
H   -1.19258909  -1.84338152   0.14296716
C   -3.12034220  -2.04642275   0.30856582
H   -3.98741662  -1.42924415   0.05805091
H   -3.15144406  -2.25626535   1.38920271
H   -3.21243845  -3.00061123  -0.23348581
O    2.34486825  -0.96241824   1.71621966
H    2.35491072  -0.10699504   1.26171601
C    3.25186328  -0.88248174   2.80410933
H    3.22812064  -1.85411136   3.30496597
H    2.96801404  -0.11270919   3.53872294
H    4.28704102  -0.68995060   2.48143901
O   -1.74475979   1.14502999   1.33511584
H   -1.92141630   0.33105126   0.84049035
C   -0.95650184   0.80069888   2.46322012
H   -0.76680399   1.72890639   3.00905044
H    0.01525748   0.36330845   2.18545988
H   -1.46968892   0.10329806   3.14369676
