42
Energy:   -218.80744947
O   -0.50908641  -2.77789195  -1.69860385
H    0.22271260  -2.14345820  -1.71828374
C   -0.25252730  -3.69852244  -0.65019997
H   -1.08630078  -4.40580039  -0.64214565
H   -0.20537625  -3.21511176   0.33816647
H    0.67724883  -4.26858724  -0.80290824
O    1.07696511   1.93335251  -0.90658979
H    0.41166864   2.12847181  -0.23003061
C    2.00625481   3.00518274  -0.91818291
H    2.74843092   2.76921244  -1.68563182
H    2.53308269   3.12163375   0.04185296
H    1.54079022   3.96876657  -1.17823342
O   -0.83975168   2.30690989   1.09544647
H   -1.27357008   1.51832181   1.45371131
C   -1.71757743   3.40498568   1.28567079
H   -1.21342659   4.28474728   0.87660276
H   -1.93287876   3.59817247   2.34826268
H   -2.67416062   3.28173383   0.75413066
O    1.45987610  -0.75847621  -1.53954431
H    1.34686043   0.19690207  -1.42595261
C    2.62158823  -0.96380899  -2.32745112
H    2.73399624  -2.04496116  -2.44560203
H    3.53426793  -0.57601880  -1.84848152
H    2.53923857  -0.51747717  -3.33083727
O   -2.52796099  -1.02709031  -0.76724087
H   -1.97395341  -1.72430791  -1.14853667
C   -2.33352795   0.14739671  -1.53880408
H   -2.96473799   0.92245136  -1.09569080
H   -2.63601483   0.02049175  -2.59007672
H   -1.29129185   0.50245931  -1.51754863
O    1.81830492  -1.53237155   1.19087829
H    1.70727426  -1.34326694   0.24730269
C    1.84163872  -0.29182342   1.87864981
H    1.96729357  -0.52326670   2.93984256
H    0.90585251   0.27687367   1.76175192
H    2.68005398   0.35100930   1.56783914
O   -2.11684529  -0.07011348   1.84041381
H   -2.36908155  -0.43963732   0.98119773
C   -1.70245621  -1.14615643   2.66681990
H   -1.42191730  -0.71225383   3.63041300
H   -0.82658662  -1.67866357   2.26424576
H   -2.50436940  -1.88000917   2.84337791
