42
Energy:   -219.69329106
O   -0.65745961  -1.39566815   1.53517712
H    0.17534942  -1.66576409   1.12056819
C   -1.68894961  -1.55835416   0.57491912
H   -2.61978974  -1.24969524   1.05839768
H   -1.80443469  -2.60355567   0.24781926
H   -1.54264381  -0.92925643  -0.31704949
O   -1.46740513   1.07293431   2.59383536
H   -1.21088339   0.17870290   2.32370568
C   -1.48603986   1.10547542   4.01197767
H   -1.77682915   2.11960447   4.29915193
H   -0.50019044   0.89460056   4.45515940
H   -2.21811531   0.40521874   4.44381495
O    0.23779992  -1.87428349  -2.44038001
H   -0.01000967  -0.93781265  -2.44638370
C   -0.48066436  -2.51632728  -3.48159210
H   -0.18972406  -3.57008174  -3.46060440
H   -0.23631425  -2.11447802  -4.47737699
H   -1.57168609  -2.46056957  -3.34252377
O    2.77036809   0.51926891   0.63717756
H    2.42967988  -0.36320623   0.42838952
C    1.79222466   1.18400812   1.42068952
H    2.19207818   2.17619145   1.64690760
H    1.59107993   0.67142354   2.37440603
H    0.83720764   1.31414350   0.88797515
O   -1.63174432   2.12646827  -0.01578197
H   -1.65548599   1.83740677   0.90850319
C   -1.76042752   3.53920163  -0.02838647
H   -1.73173881   3.84792910  -1.07688516
H   -0.93729432   4.04590489   0.49932639
H   -2.71356012   3.88324726   0.40283064
O    1.64141282  -2.02352167  -0.02956026
H    1.22599104  -2.07743624  -0.90302534
C    2.78036715  -2.86919880  -0.04168471
H    3.23618724  -2.79651484   0.94949150
H    3.53105778  -2.56084661  -0.78610383
H    2.52430947  -3.92480265  -0.22310218
O   -0.43400714   0.83311690  -2.21410533
H   -0.88822345   1.30858989  -1.50274308
C    0.80382641   1.48609270  -2.44632176
H    1.30231555   0.93774295  -3.25025356
H    1.46331178   1.47340201  -1.56445140
H    0.67905388   2.53069922  -2.77190794
