42
Energy:   -219.01961497
O    0.40907126  -0.35979009  -2.93164927
H    1.14268826   0.13284442  -2.53473543
C   -0.69770420   0.52208357  -3.03105103
H   -1.51497858  -0.04885363  -3.48002598
H   -0.49290504   1.39040584  -3.67669108
H   -1.03718768   0.89062780  -2.05038623
O    2.25941496   1.10111646  -1.35700560
H    1.72903657   1.74157782  -0.86008380
C    2.64736754   0.07417498  -0.45844133
H    3.24383934  -0.63849433  -1.03447002
H    1.78712777  -0.46595437  -0.03297080
H    3.26830573   0.44714027   0.37108262
O   -1.94907872   1.22108821   0.53437539
H   -1.50238283   0.61153115   1.14044984
C   -3.30602967   1.31207797   0.93803214
H   -3.79436456   2.00242700   0.24489979
H   -3.42053767   1.71356217   1.95708841
H   -3.83141097   0.34571628   0.88420916
O    0.37417459   2.71131956  -0.02349676
H   -0.47493140   2.28167884   0.15775208
C    0.10523602   3.92488216  -0.70721574
H    1.07227156   4.39581891  -0.90354723
H   -0.50012246   4.62443144  -0.10976346
H   -0.39945428   3.76599263  -1.67304137
O   -0.12155280  -2.48197676  -1.14141346
H    0.05403634  -1.85060883  -1.85483217
C   -1.49771828  -2.38582445  -0.81057045
H   -1.67820078  -3.10346747  -0.00564824
H   -2.15691341  -2.64554066  -1.65365205
H   -1.77839433  -1.38550915  -0.44537518
O    1.03978623  -2.64520317   1.39764374
H    0.67244421  -2.68740235   0.50226541
C    1.93675954  -3.73413362   1.54665092
H    2.34132415  -3.67142976   2.56049554
H    2.77976912  -3.69050411   0.83939662
H    1.44115980  -4.71140949   1.43669590
O   -0.46357923  -0.41636822   2.24810667
H    0.05054308  -1.21887317   2.07464967
C    0.40285262   0.52621012   2.85915141
H   -0.19225385   1.42387854   3.04763193
H    1.24919211   0.80715694   2.21296592
H    0.80329993   0.17360056   3.82252350
