42
Energy:   -220.57350007
O    0.71925087  -0.65341526  -2.25224881
H    1.00809844   0.26592263  -2.15321248
C   -0.68168943  -0.64276166  -2.47537785
H   -0.99033474  -1.68596397  -2.58470404
H   -0.96172784  -0.10571935  -3.39512856
H   -1.24299213  -0.20706551  -1.63401855
O    1.27831073   2.05053464  -1.65805887
H    0.62444986   2.31232030  -0.99295925
C    2.07553516   3.18741354  -1.94870188
H    2.80653480   2.87491965  -2.69934980
H    2.62590992   3.55691555  -1.06930821
H    1.49064961   4.02098329  -2.36804386
O   -0.65292909   2.57458971   0.30066340
H   -0.76404926   1.97676036   1.05476926
C   -1.92515924   2.74736840  -0.30275333
H   -1.78176376   3.42329792  -1.15012705
H   -2.66015393   3.20458307   0.37806594
H   -2.34579487   1.80437614  -0.68564834
O    1.30627790  -1.06026533   1.74508913
H    1.26582330  -1.77338033   1.09067818
C    2.26557660  -0.11699804   1.29505957
H    2.29841454   0.67924145   2.04366464
H    1.99620686   0.33492080   0.32759555
H    3.27604212  -0.54628075   1.20872814
O   -2.80895450  -0.61559755   0.56959940
H   -2.21998029  -0.16554562   1.19328675
C   -2.47248915  -1.99373322   0.57777877
H   -3.14530520  -2.48558735  -0.12995231
H   -2.61504056  -2.46041451   1.56503001
H   -1.43751540  -2.18072487   0.25121978
O    1.10267891  -2.78942731  -0.47975894
H    0.96414921  -2.10908969  -1.15531316
C    1.84462794  -3.84204954  -1.07476470
H    1.99169859  -4.59961179  -0.30019717
H    2.83611380  -3.51712284  -1.42712216
H    1.31387163  -4.31330021  -1.91678481
O   -0.87997125   0.57918724   2.29601220
H   -0.09895851   0.01454764   2.19790761
C   -1.25855563   0.55647102   3.66301316
H   -2.13951829   1.19740595   3.75570845
H   -0.47568877   0.95401783   4.32773366
H   -1.53164894  -0.45172242   4.01193056
