42
Energy:   -218.95750172
O    3.12291730  -0.62412766  -1.59802373
H    2.34146262  -0.93079213  -2.08145807
C    3.89984073   0.16021564  -2.48893861
H    4.77588144   0.49747050  -1.92831660
H    3.36242386   1.05077576  -2.85068868
H    4.25236822  -0.41129861  -3.36179207
O    1.93330119   1.01681719   0.38975576
H    2.45781475   0.45956906  -0.20419989
C    0.60281928   1.03702256  -0.10212167
H    0.02583407   1.66898695   0.57846212
H    0.13934687   0.03813349  -0.11595214
H    0.52962250   1.46807249  -1.11287165
O   -2.67848048  -0.19912182   0.61808053
H   -2.29972715   0.20036387   1.41518803
C   -3.27740767  -1.42844829   0.99567347
H   -3.69897713  -1.86495729   0.08615477
H   -4.09465637  -1.29785744   1.72219114
H   -2.55217036  -2.14419541   1.41342249
O    0.71546503  -1.34788988  -2.85897250
H   -0.18243845  -1.05565302  -2.64266202
C    0.70571646  -2.76550916  -2.91183397
H    1.72458751  -3.07777279  -3.15653461
H    0.03233947  -3.15740192  -3.69014036
H    0.42957074  -3.22502616  -1.94987504
O   -1.83934018  -0.50666140  -2.04376802
H   -2.18035096  -0.41292171  -1.14191005
C   -2.41743592   0.52177199  -2.83159023
H   -2.02266305   0.40141525  -3.84408904
H   -2.14932860   1.52975435  -2.47822447
H   -3.51530010   0.45207086  -2.88271089
O   -1.46701991   0.90038162   2.89909194
H   -0.51869648   0.93674037   3.09347298
C   -2.04393321   2.11886696   3.34067803
H   -3.11202206   2.06102561   3.11412609
H   -1.63172096   2.99764860   2.82048457
H   -1.93291362   2.27342263   4.42537362
O    1.32648557   1.11083948   3.14226151
H    1.61607554   1.15060716   2.21869264
C    2.22998900   0.26924985   3.84079013
H    1.88912646   0.23558867   4.87913730
H    3.26199540   0.65353142   3.83255522
H    2.23959868  -0.76070768   3.45108194
