42
Energy:   -221.17354894
O   -0.80356176  -2.83469285   0.71997839
H    0.13562497  -2.63383597   0.84650144
C   -0.89187009  -4.10922304   0.10328704
H   -1.95624501  -4.31975742  -0.03186654
H   -0.46101090  -4.91182757   0.72212762
H   -0.41000511  -4.13698174  -0.88656796
O   -1.84380946  -0.41855746   1.71960930
H   -1.56059543  -1.29278404   1.41311138
C   -3.25727406  -0.44120135   1.83851619
H   -3.55935718   0.55098207   2.18464198
H   -3.61037765  -1.18133215   2.57356829
H   -3.76164841  -0.63629753   0.87918240
O    1.82734819  -1.95332278   1.09317803
H    2.27743438  -1.31070019   0.52495104
C    1.71353686  -1.37962242   2.38563641
H    1.20443013  -2.11653648   3.01273543
H    1.11419868  -0.45574147   2.38951995
H    2.69188827  -1.16106000   2.84152711
O   -1.13421075   2.82329972  -1.85438600
H   -1.17753162   2.67578355  -0.89794178
C   -1.75325504   4.07051143  -2.12601236
H   -1.69567603   4.22089876  -3.20747133
H   -1.24247736   4.91436723  -1.63632787
H   -2.81507083   4.09064040  -1.83460304
O    2.83897404   0.01420216  -0.64009513
H    2.10576678   0.25304433  -1.22642678
C    4.02370767  -0.00940623  -1.42008400
H    4.83945577  -0.28006903  -0.74422759
H    4.25960726   0.97004189  -1.86484246
H    3.98659524  -0.75768184  -2.22722935
O   -1.07058819   2.15394498   0.87427811
H   -1.36830605   1.30455949   1.23251217
C    0.31924517   2.26764838   1.13498590
H    0.63810571   3.22979136   0.72499316
H    0.90954849   1.47621085   0.64718885
H    0.55190968   2.26127090   2.21137053
O    0.57864842   0.59069163  -2.19621574
H    0.02535301   1.38358624  -2.25626240
C   -0.26052230  -0.49306864  -1.83044266
H    0.37865781  -1.37791123  -1.76729524
H   -1.04674745  -0.69233734  -2.57537174
H   -0.73989586  -0.34752663  -0.84973075
