42
Energy:   -219.71766158
O    0.21143390   1.39114890  -1.24705419
H    0.43525992   0.50809364  -1.57650617
C   -1.20309216   1.49708962  -1.22640605
H   -1.43778071   2.49753915  -0.85289938
H   -1.67477165   0.76265631  -0.55491256
H   -1.65203308   1.39206086  -2.22650521
O    2.93592831  -0.73279328  -0.33588505
H    2.20317171  -1.00451474  -0.90829965
C    3.65740128   0.28352147  -1.01346521
H    4.47894535   0.57797259  -0.35479301
H    3.04547448   1.17642378  -1.21606925
H    4.09021476  -0.06422789  -1.96452788
O   -1.42448076  -1.16530217   1.46702239
H   -1.63512128  -0.31255762   1.87553260
C   -0.02744779  -1.37294420   1.60012932
H    0.19251900  -2.33761931   1.13483185
H    0.29735800  -1.41901730   2.65139323
H    0.56790574  -0.60225909   1.08595429
O    0.70044966  -1.31362824  -2.01038209
H   -0.15687321  -1.70004298  -1.77777851
C    1.11903812  -1.89915992  -3.23286731
H    2.08603565  -1.45277164  -3.48012929
H    0.42538526  -1.69244279  -4.06286192
H    1.25557078  -2.98931885  -3.15743738
O    0.69714698   2.45510840   1.33001736
H    0.61892086   2.17742143   0.40525042
C    2.00623905   2.12838897   1.76827087
H    2.07716915   2.44789378   2.81152098
H    2.78891544   2.65169631   1.19700525
H    2.21074784   1.04704170   1.72775464
O   -1.79780508  -2.18365176  -1.11332740
H   -1.74495882  -1.88459928  -0.19343710
C   -2.98758428  -2.94390108  -1.25109601
H   -3.03134348  -3.27284760  -2.29290430
H   -3.89465659  -2.35604500  -1.04032984
H   -2.99686097  -3.83910611  -0.60976985
O   -1.68519826   1.47620881   2.43721947
H   -0.86530990   1.89600864   2.13726203
C   -2.32533042   2.37223090   3.33159579
H   -3.24683940   1.88373744   3.65974293
H   -2.59627625   3.32743932   2.85521091
H   -1.71746714   2.58906887   4.22393029
