42
Energy:   -218.20558112
O   -1.64645416  -0.91209416  -3.18977039
H   -1.50318534  -0.19516263  -2.55423400
C   -2.56367023  -0.44498341  -4.16601627
H   -2.71373151  -1.26475529  -4.87378805
H   -2.18326648   0.42386455  -4.72563537
H   -3.54298518  -0.18052430  -3.73731947
O    1.39958647  -0.51082683   2.30567340
H    1.05830190  -1.34162672   1.94274138
C    2.49090824  -0.10352536   1.49594745
H    2.86326267   0.83353356   1.91874522
H    2.19798041   0.08584680   0.45138591
H    3.31730645  -0.83142399   1.49857866
O    0.40286579  -2.77101723   0.95693454
H    0.35307783  -2.74392146  -0.01012815
C   -0.11731113  -4.02125465   1.37984840
H   -0.05374079  -4.03497488   2.47129504
H    0.46099385  -4.87509002   0.99344725
H   -1.17268477  -4.16015068   1.09758667
O    0.27787375  -2.49210591  -1.83395069
H   -0.42694057  -2.11766587  -2.38299960
C    1.46352366  -1.75868515  -2.09636651
H    2.24704538  -2.19350075  -1.46985688
H    1.37054082  -0.69268691  -1.83602200
H    1.78581546  -1.83300859  -3.14678612
O    0.21961147   2.01827276   2.61522578
H    0.62728684   1.13951231   2.61319108
C   -0.50565759   2.15348824   3.82693340
H   -0.95832112   3.14866642   3.81274456
H    0.13798017   2.08388610   4.71781123
H   -1.31416953   1.41204240   3.92359689
O    0.79745135   2.76803951  -0.03264327
H    0.63493549   2.61823961   0.91052790
C    0.61983225   4.15262847  -0.28542503
H    0.80663688   4.30373647  -1.35208130
H    1.32697053   4.78180851   0.27748285
H   -0.40279585   4.49724276  -0.06576598
O   -1.07226170   0.99225044  -1.20537164
H   -0.40765113   1.63981921  -0.92721564
C   -1.47382942   0.26621908  -0.05465204
H   -2.22241223  -0.45861100  -0.38590774
H   -1.93535619   0.90706419   0.71286858
H   -0.64336274  -0.28856560   0.40936992
