42
Energy:   -217.23083502
O   -2.34372628   1.53639775   0.92026896
H   -2.04473554   1.45867306   0.00212589
C   -2.54531234   2.91407215   1.19213306
H   -2.88179499   2.98349960   2.23013328
H   -3.31920429   3.36513705   0.55150131
H   -1.62253996   3.50673358   1.09202859
O    2.45752595   0.27182114  -1.96681950
H    1.69806602  -0.32945923  -1.97710550
C    3.63412016  -0.52069771  -1.97540427
H    4.47976468   0.17228975  -1.96361716
H    3.71846458  -1.14690283  -2.87736353
H    3.71438584  -1.17230594  -1.09124282
O   -1.19468579   1.14813028  -1.61065399
H   -0.73601192   0.29932139  -1.69763113
C   -0.48899737   2.10055906  -2.39002363
H   -1.01900494   3.05062863  -2.28073050
H   -0.46803246   1.84251509  -3.46042128
H    0.54739124   2.24643045  -2.04739042
O    0.20814379  -2.31571439   0.96680564
H   -0.37953578  -1.82619731   1.56130462
C    1.49241747  -2.35593829   1.56810167
H    2.14169834  -2.91078420   0.88541171
H    1.49169071  -2.87748226   2.53803399
H    1.92583516  -1.35392974   1.71268833
O    0.17563096  -1.35044604  -1.64566611
H    0.19797944  -1.75637639  -0.76637983
C   -0.59702268  -2.19059640  -2.48809563
H   -0.61185905  -1.71859958  -3.47424171
H   -1.63794874  -2.29598866  -2.14437664
H   -0.16373454  -3.19707290  -2.59783976
O   -1.52010103  -0.67184711   2.44384329
H   -1.84723740   0.12490509   2.00045747
C   -2.57826328  -1.18988632   3.23407224
H   -2.19269587  -2.08680791   3.72636751
H   -3.45469174  -1.48002689   2.63368159
H   -2.90914207  -0.48736863   4.01494705
O    2.52240311   1.17710659   0.74797837
H    2.56450444   0.99060436  -0.20168877
C    1.16917793   1.45216526   1.07302931
H    1.13983496   1.66002101   2.14607180
H    0.50180538   0.59951286   0.87209377
H    0.77543789   2.33390456   0.54361274
