42
Energy:   -219.77990514
O   -0.49119592  -1.48879102  -2.25045751
H   -1.00764517  -1.76761370  -1.47976863
C    0.58842467  -0.69692091  -1.78152800
H    1.15967578  -0.39135711  -2.66231636
H    1.26397323  -1.25242023  -1.11232550
H    0.25310808   0.21296735  -1.25956682
O    1.89593631   0.50791490   1.33654818
H    1.68265282   1.24732794   0.74815905
C    2.38010969   1.05230939   2.55381748
H    2.61550368   0.20597834   3.20481567
H    1.63363180   1.67953959   3.06580418
H    3.29838775   1.64508318   2.41905112
O   -1.47474198   2.45557175  -1.41878472
H   -1.92907719   1.84129157  -0.82324912
C   -1.82561778   2.10525561  -2.74795685
H   -1.30536350   2.80697173  -3.40553967
H   -2.90631201   2.19453491  -2.94006752
H   -1.50793049   1.08570480  -3.01697038
O    1.11573870   2.61094359  -0.34567264
H    0.22400002   2.67324504  -0.71896063
C    2.02019766   3.14256924  -1.30058726
H    3.01962738   3.06464554  -0.86406311
H    1.82723537   4.20342211  -1.52449367
H    2.01679044   2.58125784  -2.24805506
O   -1.70903266  -2.22907807   0.24879557
H   -0.92516375  -2.25766376   0.81726339
C   -2.18127984  -3.55846610   0.09965183
H   -3.06420783  -3.50793393  -0.54328663
H   -2.48149917  -4.01298412   1.05676157
H   -1.44479196  -4.21971531  -0.38316534
O    0.68231299  -1.99993451   1.67471742
H    1.13259742  -1.14511051   1.60441002
C    1.66129000  -3.01569404   1.52515013
H    1.13708005  -3.97172595   1.60695546
H    2.43308809  -2.98130651   2.30995744
H    2.16125940  -2.98332747   0.54445632
O   -2.46011528   0.51248192   0.35670045
H   -2.36131779  -0.44905806   0.29264436
C   -1.89348159   0.92211132   1.59106822
H   -2.01328940   2.00747290   1.64693875
H   -0.81863793   0.69318620   1.66235447
H   -2.40192008   0.47731453   2.46079430
