42
Energy:   -217.56840417
O    2.52850344   0.23568667  -1.05421429
H    1.82188806   0.89822966  -1.06665435
C    1.99027968  -0.97710077  -1.55620591
H    2.79931532  -1.71229305  -1.53525713
H    1.63713272  -0.88762935  -2.59546498
H    1.16285499  -1.36237261  -0.93999870
O    0.81332918   1.75156203   1.69018585
H    0.62499075   1.96054880   0.76321420
C    2.14033780   2.17116846   1.96498098
H    2.33595458   1.92834450   3.01295798
H    2.27904622   3.25580831   1.83423810
H    2.88798201   1.64839450   1.34812374
O   -1.95017751   0.84530034  -2.09825319
H   -2.52736312   0.53990589  -1.38270146
C   -1.65704158  -0.27224431  -2.92147798
H   -1.00617258   0.08946376  -3.72211648
H   -2.55685190  -0.70772945  -3.38350765
H   -1.12305835  -1.06976858  -2.38148327
O    0.33811453   2.06639615  -1.07598437
H   -0.46730370   1.70398322  -1.47395625
C    0.68355118   3.23925779  -1.79543060
H    1.59265499   3.63447376  -1.33410664
H   -0.09387204   4.01720620  -1.73897919
H    0.89853494   3.03922268  -2.85681896
O   -1.11910307  -2.34182419   0.26498362
H   -0.47522067  -1.96154019   0.88079431
C   -1.62421464  -3.53118204   0.85049535
H   -2.34787007  -3.94644947   0.14384056
H   -2.14432386  -3.34820855   1.80379720
H   -0.84147200  -4.28680233   1.02116838
O    0.60391087  -1.04419660   2.03942202
H    0.67599107  -0.07825580   2.02578074
C    1.91132495  -1.57116674   2.19912389
H    1.81174419  -2.65992379   2.21242660
H    2.38272554  -1.25990209   3.14446675
H    2.58335338  -1.29993400   1.36991468
O   -3.11710189  -0.34382284   0.17936618
H   -2.52203695  -1.10770342   0.20778186
C   -2.78623144   0.50035949   1.27042745
H   -3.46588170   1.35554534   1.22333298
H   -1.75429033   0.88101538   1.21587490
H   -2.92393301   0.00817721   2.24591308
