42
Energy:   -217.59805535
O   -2.56800633  -1.04610436   1.09825397
H   -2.25183961  -0.13138329   1.05645377
C   -3.98619475  -1.01227574   1.08680902
H   -4.32560083  -2.05055545   1.13439029
H   -4.39340938  -0.56176416   0.16811816
H   -4.40576142  -0.47596174   1.95231952
O    3.58045975   1.60588849  -0.05460673
H    3.05842317   1.43044601  -0.85155153
C    4.89853738   1.13797401  -0.29180112
H    5.47288115   1.34339720   0.61562146
H    5.38906474   1.65582090  -1.13084513
H    4.93714529   0.05398038  -0.48218119
O   -1.44005766   1.51538592   0.89309331
H   -0.50078955   1.36935596   1.07983895
C   -1.81290799   2.74402428   1.49638775
H   -2.87350122   2.89297827   1.27629708
H   -1.25612058   3.60319707   1.09069421
H   -1.68928856   2.73522475   2.59065377
O    1.80029740   0.99938274  -2.13631907
H    1.20569282   0.23689076  -2.19526518
C    0.99755785   2.16740137  -2.07406579
H    1.68311027   3.01660274  -2.00803462
H    0.34339319   2.18709306  -1.18836936
H    0.37256168   2.30213610  -2.97072831
O   -0.04265682  -1.15980904  -2.07365612
H   -0.16940006  -1.84645150  -1.40217897
C   -1.31708298  -0.61738992  -2.38050010
H   -1.15593207   0.15427204  -3.13816322
H   -1.79926900  -0.14568961  -1.50999864
H   -2.00870357  -1.36609139  -2.79749457
O    1.26096243   1.00966103   1.46909772
H    2.10429525   1.30203195   1.09262427
C    1.24567395  -0.40861544   1.44095697
H    0.28905825  -0.72102222   1.86847725
H    2.05139413  -0.85463094   2.04482989
H    1.31180327  -0.81440590   0.41932184
O   -0.72780689  -2.88875110   0.07104251
H   -1.41771526  -2.34385379   0.47790445
C   -0.52134633  -4.01645984   0.90661465
H    0.25859510  -4.61933268   0.43362320
H   -1.42224858  -4.64178086   1.00724322
H   -0.17526765  -3.74081607   1.91509241
