42
Energy:   -220.75122046
O   -1.40569377  -2.13070733   0.05897909
H   -0.73263657  -2.46152448  -0.55419079
C   -2.53399708  -2.98507896  -0.03856330
H   -3.28226875  -2.59811004   0.65845159
H   -2.30657589  -4.02409742   0.24691451
H   -2.97718999  -2.99077935  -1.04669270
O    2.20836827  -0.69701305  -0.80222227
H    2.28871073   0.26836974  -0.80011703
C    2.23127404  -1.13377577   0.54731374
H    2.13980768  -2.22312789   0.52655130
H    1.39351941  -0.73206077   1.13855782
H    3.17198599  -0.87990067   1.06052500
O   -1.24769943  -0.11340977   2.03429778
H   -1.30729420  -0.87461180   1.43810720
C   -2.53242725   0.48485330   2.09824684
H   -2.44732102   1.34034832   2.77379876
H   -3.29840715  -0.19495553   2.50310741
H   -2.87825468   0.85508737   1.12043936
O    0.54579816  -2.71176410  -1.85282438
H    1.22439150  -2.07132630  -1.59249040
C    0.13703045  -2.39291653  -3.17334661
H   -0.62731884  -3.12388197  -3.45073601
H    0.95933755  -2.46553071  -3.90226055
H   -0.30755477  -1.38830373  -3.24999143
O   -2.10630763   0.15720456  -1.54041493
H   -1.89650171  -0.60144148  -0.97573721
C   -1.01765769   1.06370913  -1.46541804
H   -1.27052006   1.91210750  -2.10710802
H   -0.07512725   0.62758407  -1.83176300
H   -0.85101491   1.44469918  -0.44568568
O    2.12993107   2.11220505  -0.45251830
H    1.63922649   2.17140821   0.38062471
C    2.13144899   3.40177874  -1.04372990
H    2.68816919   3.31705085  -1.98094333
H    2.63147000   4.15646729  -0.41667208
H    1.11810463   3.76244478  -1.28001479
O    0.62230760   1.97481465   1.90172421
H   -0.05435360   1.28914273   2.00373845
C    1.31931931   2.07825680   3.13298705
H    2.07755201   2.85479427   3.00048070
H    1.83220963   1.14423697   3.41106584
H    0.66615951   2.37775412   3.96752942
