42
Energy:   -218.23892563
O    2.11720648   0.57881325  -0.30086288
H    1.96685966   1.05925612   0.52678061
C    3.51095478   0.60122899  -0.56448567
H    3.66255860   0.05582560  -1.49991960
H    4.10034682   0.10253857   0.22081823
H    3.90226453   1.62203020  -0.69722193
O    0.30872762  -0.13881000  -2.36226528
H    0.94996933   0.15946483  -1.70024982
C    0.60841162  -1.49003388  -2.67358073
H   -0.12320501  -1.81005200  -3.42044799
H    0.52021357  -2.15693629  -1.80166353
H    1.61379927  -1.61398056  -3.10556480
O   -2.73337887  -1.02492002   0.49067459
H   -2.81497837  -0.78003962  -0.44302686
C   -2.15205569  -2.31773955   0.54737363
H   -2.06738968  -2.57797290   1.60595545
H   -1.14358351  -2.35025143   0.10612066
H   -2.77129296  -3.08436493   0.05583720
O   -1.23966013   1.16973892   1.47611386
H   -1.78186056   0.39218221   1.27649540
C   -1.37907813   2.08019975   0.39715257
H   -0.76201322   2.94999981   0.63832460
H   -2.41647694   2.42436735   0.26250600
H   -1.02411319   1.66429833  -0.55877799
O    1.41553935   1.68304244   2.17863100
H    0.46734356   1.55010365   2.03140567
C    1.58350916   2.14941752   3.50784664
H    2.65702095   2.29389679   3.65678751
H    1.22864735   1.42739753   4.25986895
H    1.08126406   3.11295186   3.68709162
O   -2.49253601  -0.18072021  -2.18834510
H   -1.53409740  -0.15576224  -2.32689404
C   -3.09757062   0.56981709  -3.22909514
H   -4.17675303   0.53128187  -3.05773127
H   -2.89534401   0.15187642  -4.22769782
H   -2.78892679   1.62693846  -3.22582135
O    1.54746351  -2.04106225   0.72707800
H    1.74530568  -1.18719261   0.31453905
C    1.17980016  -1.79313869   2.07462813
H    0.96033923  -2.76529282   2.52433742
H    0.27881914  -1.16581133   2.16106253
H    1.98794972  -1.32258623   2.65622249
