42
Energy:   -219.06593370
O   -0.49541233  -0.71817672   3.64432857
H    0.28842456  -0.48229763   3.12627059
C   -0.19705866  -0.47748340   5.01019298
H   -1.09044202  -0.74838282   5.57937211
H    0.03096161   0.58013594   5.21568118
H    0.64055238  -1.09116618   5.37704245
O   -2.04685687  -0.58508765   1.27331963
H   -1.66241135  -0.72276658   2.15176680
C   -2.08717907   0.81287788   1.03541150
H   -2.52281213   0.95005163   0.04198692
H   -1.08681662   1.27336881   1.03605040
H   -2.71733746   1.34981701   1.76161677
O   -1.15003978  -1.65446406  -1.16739233
H   -1.47283551  -1.28636619  -0.33149153
C   -1.99458798  -2.74028237  -1.51419302
H   -1.61685370  -3.14313341  -2.45786302
H   -3.04072632  -2.43284829  -1.66864751
H   -1.97673366  -3.54857484  -0.76644853
O   -0.04670538   1.76057657  -2.71507242
H    0.24118938   0.90631372  -3.06971995
C   -1.45552299   1.83564702  -2.86383784
H   -1.76298002   2.80384971  -2.45943838
H   -1.98474901   1.04841108  -2.30441248
H   -1.77507111   1.78839959  -3.91665976
O    0.65160326  -0.93067534  -3.18688888
H    0.03954439  -1.26820905  -2.51615926
C    1.96580258  -1.03876912  -2.66369708
H    2.64233614  -0.65434032  -3.43181299
H    2.25258499  -2.07951922  -2.44604504
H    2.11058854  -0.44025068  -1.75068556
O    1.57404168  -0.02523068   1.87536548
H    1.49807776   0.63959780   1.17489717
C    1.76854716  -1.28538243   1.25349816
H    1.85208569  -2.02252289   2.05669829
H    2.69219560  -1.32627884   0.65518523
H    0.92410575  -1.57657514   0.60936864
O    1.26102774   1.81786231  -0.22869724
H    0.78215509   1.86639878  -1.06938058
C    2.06925557   2.97922595  -0.12605203
H    2.60156824   2.90834578   0.82636827
H    1.47891789   3.90886383  -0.11882966
H    2.81756594   3.04904043  -0.93099604
