42
Energy:   -219.48037230
O    2.17525191  -1.77896956  -2.31633237
H    1.42114006  -1.17194090  -2.28090918
C    2.50297652  -1.97903221  -3.68202095
H    3.35411058  -2.66502756  -3.70361738
H    2.80202986  -1.04793483  -4.18838258
H    1.68081821  -2.43698987  -4.25395435
O   -0.41716202   2.41477239  -0.68172197
H   -1.09569568   2.24450319  -0.01162963
C   -0.87160230   3.48717987  -1.49163554
H   -0.09556818   3.66576217  -2.24087823
H   -1.01686843   4.41838700  -0.92196162
H   -1.80902971   3.25332500  -2.02014201
O   -2.17671218   1.63970036   1.33904760
H   -2.38423258   0.70442482   1.48263809
C   -1.51455747   2.11674954   2.49943935
H   -1.28812535   3.17139424   2.32072656
H   -0.56599568   1.59209771   2.69372864
H   -2.13990767   2.05028674   3.40348423
O    1.65385013   1.23629430   0.87601017
H    1.05357185   1.75071867   0.31613802
C    2.82496375   0.97039910   0.12081059
H    3.49007946   0.39036652   0.76630923
H    3.35500555   1.88794269  -0.17910071
H    2.62197694   0.37511901  -0.78318902
O   -2.25379223  -1.14830181   1.81801702
H   -1.29246199  -1.25848926   1.86412747
C   -2.83829253  -2.09562481   2.69748976
H   -3.92103528  -1.95771117   2.63320003
H   -2.53665226  -1.94522198   3.74590260
H   -2.60925851  -3.13530856   2.41574795
O    0.54066934  -1.17726652   1.83348576
H    1.00172092  -0.36631505   1.57231070
C    1.22838587  -2.27107933   1.24769289
H    0.69592530  -3.17627191   1.55199099
H    2.26983407  -2.35428437   1.59588808
H    1.23210577  -2.23087669   0.14717154
O   -0.00253212   0.01371870  -2.14888650
H   -0.11348321   0.88242617  -1.73480867
C   -1.03536753  -0.82929723  -1.66400616
H   -0.89542324  -1.80343288  -2.14040991
H   -2.04071953  -0.46308823  -1.92465088
H   -0.98994039  -0.97310347  -0.57311961
