42
Energy:   -217.02244786
O    1.32010439  -1.73922252   0.48983949
H    1.55694547  -0.87485201   0.12215321
C    1.34147172  -2.67931215  -0.57237927
H    1.07246698  -3.64720554  -0.14074975
H    2.33637466  -2.77626076  -1.03449013
H    0.61237731  -2.44379460  -1.36341034
O    1.88403766   0.79976959  -0.64424678
H    1.42257195   1.61149543  -0.38622774
C    3.27739151   1.06056823  -0.58872295
H    3.78198824   0.13605409  -0.88222071
H    3.61961448   1.32998338   0.42274937
H    3.58930234   1.85535588  -1.28428140
O   -0.04053907  -0.03564694  -2.56881943
H    0.70059772   0.18900950  -1.98686667
C   -0.44024163   1.15158566  -3.23458996
H   -1.27567455   0.88053209  -3.88579423
H    0.35837688   1.57632243  -3.86274956
H   -0.78814981   1.93211309  -2.53995756
O    0.25636508   2.96757326   0.01059301
H   -0.53746887   2.50482558   0.31737554
C   -0.02228102   4.35846225   0.02842351
H    0.88217643   4.86454702  -0.31988687
H   -0.25562522   4.73250157   1.03759267
H   -0.84895492   4.63519924  -0.64448380
O   -2.49781980  -0.52073861  -1.23069654
H   -1.71051487  -0.46130067  -1.79198198
C   -2.53567963  -1.82728033  -0.67929002
H   -3.42842021  -1.87692857  -0.04997730
H   -1.66051595  -2.04807503  -0.04832601
H   -2.61618122  -2.61128946  -1.44846262
O   -0.57864823  -2.71730365   2.33076163
H    0.09753309  -2.41023457   1.70874019
C    0.06282229  -2.98077486   3.56835295
H   -0.71308934  -3.32558044   4.25723281
H    0.53189291  -2.08444639   4.00349127
H    0.82673740  -3.77029714   3.49176564
O   -1.92212068   1.39277769   0.77014241
H   -2.27507870   0.75836377   0.12876663
C   -1.44868094   0.65739787   1.88710485
H   -1.05466966   1.38719985   2.59958600
H   -0.63537622  -0.03733350   1.62507225
H   -2.24541795   0.08624027   2.38886820
