42
Energy:   -218.19533425
O   -1.83238327  -0.65597252   0.93196833
H   -2.39482290   0.08832414   1.19294231
C   -0.64755339  -0.59353140   1.70966559
H   -0.02555518  -1.43884149   1.40298287
H   -0.84227500  -0.68703025   2.78953540
H   -0.07489548   0.33145199   1.53865102
O   -3.06708608   1.82177139   1.54986706
H   -2.43088202   2.25410253   0.96100590
C   -3.19936310   2.62986418   2.70832405
H   -3.91938301   2.12835017   3.36065850
H   -3.58598030   3.63611280   2.48300606
H   -2.25364763   2.73698537   3.26233183
O   -1.06950772   2.74507408  -0.19184627
H   -0.13627277   2.48725121  -0.22383337
C   -1.66321656   2.36606003  -1.42326493
H   -2.71395774   2.66373954  -1.37020745
H   -1.62464876   1.27931560  -1.59726608
H   -1.20809256   2.87288226  -2.28858031
O    1.58217569   1.73335649  -0.30803228
H    1.99581580   1.07432355   0.26902987
C    1.81810258   1.33893127  -1.65015784
H    1.34558495   2.09202327  -2.28660480
H    1.37279394   0.36080591  -1.89046665
H    2.88985870   1.30382990  -1.90092474
O    1.74454040  -2.33157070  -0.78516137
H    0.90690048  -2.04744463  -1.18019938
C    1.58356131  -3.67325937  -0.35331531
H    2.53611786  -3.97735450   0.08900513
H    1.35645515  -4.36230681  -1.18181622
H    0.80081931  -3.78210974   0.41365528
O    2.73360065  -0.47149210   1.06152957
H    2.46823915  -1.18830473   0.46639411
C    4.14623638  -0.51483233   1.18447554
H    4.42807576   0.29903502   1.85802710
H    4.66169960  -0.35719848   0.22414926
H    4.50629463  -1.45952953   1.62114771
O   -0.79704929  -1.41468995  -1.56255780
H   -1.17946928  -1.13715836  -0.71688975
C   -1.84958941  -1.92859259  -2.36293093
H   -1.40137518  -2.23647607  -3.31150722
H   -2.62484572  -1.17707717  -2.57967861
H   -2.33501996  -2.80881796  -1.91311118
