42
Energy:   -221.11172022
O    1.31346294  -1.21619912   2.33439552
H    0.56131207  -1.67128944   1.92747399
C    2.22709134  -2.20665739   2.77802749
H    3.06802346  -1.67683849   3.23367022
H    2.61844064  -2.82376512   1.95413362
H    1.79323646  -2.87573417   3.53755599
O   -1.55456486  -1.89314362  -1.61285583
H   -0.83118907  -1.31528397  -1.89786280
C   -1.99305095  -2.62486228  -2.74636874
H   -2.80780464  -3.27052473  -2.40757438
H   -1.20384563  -3.26520505  -3.17050721
H   -2.38184737  -1.97620268  -3.54690319
O   -0.83047515   2.42883473   0.27886657
H   -0.29142769   2.22773209   1.05823095
C   -1.79866324   1.40022197   0.14809433
H   -2.39707086   1.64239241  -0.73437211
H   -2.47614773   1.34130232   1.01430480
H   -1.34670010   0.40813086  -0.00766790
O    0.59677175  -0.20133737  -2.20727577
H    0.60371004   0.75357618  -2.37011076
C    1.47917972  -0.46019434  -1.12705218
H    1.45929377  -1.54009051  -0.95701098
H    1.16836220   0.03788048  -0.19533802
H    2.51798889  -0.16835091  -1.34723452
O   -0.88517247  -2.38900396   1.06642847
H   -1.17167111  -2.31897454   0.14369466
C   -2.04160074  -2.30447062   1.88377878
H   -1.70080198  -2.38507512   2.91956077
H   -2.75632008  -3.12076454   1.69505191
H   -2.57183487  -1.34569887   1.77248709
O    0.91696183   1.56436724   2.30951143
H    1.09689012   0.62037132   2.43166210
C    2.15517949   2.20958308   2.05841917
H    1.93417916   3.27183212   1.92324875
H    2.64726761   1.84415320   1.14349425
H    2.86309527   2.11210585   2.89635161
O    0.40069460   2.61785456  -2.23017231
H   -0.04390775   2.65470699  -1.37029212
C   -0.01112689   3.75177206  -2.97660914
H    0.49891449   3.69452198  -3.94204449
H    0.27138117   4.70204934  -2.49708895
H   -1.09621384   3.76627808  -3.16410106
