42
Energy:   -217.20815742
O    0.87438669  -2.48961528  -0.93834204
H    0.74544597  -1.65923625  -1.42028419
C    2.09474406  -3.06026337  -1.38288945
H    2.22442177  -3.99462082  -0.83003772
H    2.96486898  -2.41768185  -1.17613124
H    2.08614896  -3.29817484  -2.45811110
O   -0.10871779   2.47896203  -1.08967531
H   -0.32676420   2.63620801  -0.15900204
C    0.40695023   3.68891259  -1.62131422
H    0.64731931   3.49403189  -2.66999407
H    1.32828526   4.01720925  -1.11521108
H   -0.32185557   4.51374722  -1.58571550
O   -0.49715298   2.72822086   1.68877014
H   -0.10596877   1.88283412   1.95470141
C   -1.70700444   2.88908202   2.41190008
H   -2.13435996   3.84604608   2.10033587
H   -1.54984201   2.92391522   3.50133293
H   -2.44212183   2.09914357   2.19195232
O    0.52173255  -0.01291495  -2.22256340
H    0.33481482   0.86424058  -1.85638965
C   -0.14275478  -0.10814767  -3.47233181
H    0.07836427  -1.10204931  -3.87076762
H    0.21180100   0.63815425  -4.20041215
H   -1.23604345  -0.01242821  -3.38103552
O   -2.09265694  -0.38789254   1.27684172
H   -1.16581007  -0.17787478   1.46464666
C   -2.23822346  -0.47114577  -0.13185024
H   -3.28781833  -0.70829305  -0.32574962
H   -1.62058980  -1.26691543  -0.57688580
H   -2.00283901   0.47685497  -0.64044251
O    0.71133723  -2.69022673   1.86489893
H    0.74986639  -2.75158874   0.89888988
C   -0.45806362  -3.36972586   2.29305354
H   -0.48585647  -3.29085474   3.38323339
H   -0.44979459  -4.43863611   2.02821429
H   -1.38105063  -2.92014917   1.89461520
O    0.69694612   0.12591643   1.93413365
H    0.72863421  -0.82286458   2.12709412
C    1.85538698   0.45124579   1.18266219
H    1.80366235   1.52327911   0.97396544
H    1.90160341  -0.08205781   0.22025446
H    2.78856813   0.25535389   1.73364008
