42
Energy:   -217.29697796
O    0.41743351   1.92097364   0.54062398
H    1.25820391   1.50552572   0.78338198
C    0.13361363   2.91683295   1.51028592
H   -0.81643875   3.37463093   1.22165698
H    0.89818840   3.70875424   1.54289621
H    0.01887548   2.50264284   2.52421839
O   -2.64822089  -1.07636036  -2.08371132
H   -2.02572412  -0.33425855  -2.09806199
C   -1.90688148  -2.26446593  -2.31032735
H   -2.62324371  -3.09025965  -2.29096008
H   -1.15141802  -2.44953401  -1.53071071
H   -1.40408499  -2.27161205  -3.29008341
O    2.79022902   0.55440929   1.15898587
H    2.68528274  -0.27734864   0.67361148
C    4.12794473   0.61348966   1.62755813
H    4.22880114   1.55637655   2.17187190
H    4.86548488   0.61083655   0.80975325
H    4.37294911  -0.20780155   2.31910055
O   -0.27501093  -2.02897087   1.19464637
H   -1.20748521  -1.79268149   1.08026835
C    0.16069062  -1.47763682   2.42701349
H    1.21272002  -1.75323110   2.54000523
H   -0.39190870  -1.87839797   3.29119045
H    0.09134167  -0.37878977   2.44944615
O    2.16041006  -1.80647510  -0.21301488
H    1.32193284  -2.01737332   0.22390749
C    1.87609864  -1.51394377  -1.57173715
H    2.83128435  -1.27864684  -2.04895913
H    1.21209910  -0.64328158  -1.68933514
H    1.42863900  -2.36683024  -2.10572394
O   -2.92373081  -1.14764562   0.73528410
H   -3.02536210  -1.19023309  -0.22715066
C   -3.00360854   0.21644953   1.11659466
H   -2.88721274   0.24619608   2.20335699
H   -3.97388911   0.67232280   0.86457778
H   -2.20514166   0.83005724   0.67082168
O   -0.85126244   1.05911091  -1.81161840
H   -0.41261148   1.37311920  -1.00700209
C   -1.04201949   2.17808525  -2.66252494
H   -1.53710449   1.80658467  -3.56383696
H   -0.09359656   2.64979647  -2.96378862
H   -1.68626665   2.94958380  -2.21251060
