42
Energy:   -217.83109704
O   -1.69306972  -1.76531990  -1.13033489
H   -0.76200890  -1.59891365  -1.33975786
C   -1.94300237  -3.14490424  -1.34670144
H   -2.99595734  -3.31492152  -1.10614966
H   -1.33528770  -3.79415322  -0.69713545
H   -1.77852224  -3.44794824  -2.39259243
O    1.95287435   1.60500333   2.29412756
H    1.14771958   1.06674397   2.31476557
C    1.57189599   2.95712508   2.49200645
H    2.49059101   3.54941129   2.46589698
H    1.08584069   3.12378410   3.46604565
H    0.90248100   3.33039568   1.70122837
O   -0.73795727   2.07389792  -0.03628374
H   -0.49132934   1.29732030   0.48766773
C   -1.01294809   1.63288709  -1.35629255
H   -1.28902185   2.51997654  -1.93278260
H   -1.85271947   0.92184551  -1.40080374
H   -0.13915915   1.16939281  -1.84048596
O    2.61387485   0.69476204  -0.30685726
H    2.52427870   1.00957400   0.60489338
C    2.79821039   1.82962101  -1.13791040
H    2.89735417   1.45699235  -2.16104460
H    3.71069616   2.39428695  -0.89032317
H    1.94233022   2.52198150  -1.10818816
O   -2.91634009  -0.89943004   1.25720640
H   -2.63236549  -1.20827001   0.38405144
C   -3.79954404   0.19326819   1.06100462
H   -4.10970956   0.52879307   2.05433518
H   -4.70341989  -0.08641571   0.49747760
H   -3.31925260   1.04156880   0.54867315
O    1.04833917  -1.27121675  -1.57729142
H    1.58827563  -0.59783243  -1.13746708
C    1.92058744  -2.09621915  -2.33299491
H    1.29611371  -2.84899140  -2.82171948
H    2.65948768  -2.62003974  -1.70656393
H    2.46029389  -1.54010303  -3.11544563
O   -0.28455257  -0.10359607   1.87459172
H   -1.22857480  -0.32079350   1.86619065
C    0.43800854  -1.32443092   1.87581486
H    1.49923437  -1.06138264   1.88532984
H    0.24530414  -1.93352191   0.97879172
H    0.23095080  -1.94022745   2.76502746
