42
Energy:   -221.37242603
O    0.18468280  -2.18622115  -0.81695945
H    0.75533960  -2.20119243  -0.03430374
C    0.59885320  -1.10065742  -1.63093000
H   -0.05423832  -1.09845130  -2.50782897
H    1.63837903  -1.20309463  -1.97974226
H    0.49600811  -0.12727381  -1.12622756
O    2.29396336   0.93547238   1.01838276
H    2.17750957   1.45635896   0.20996519
C    1.55395658   1.56957125   2.04932523
H    1.69615723   0.96995343   2.95249888
H    0.47478568   1.61170998   1.83393758
H    1.90660325   2.59155206   2.25902236
O   -1.22466428   2.02590209  -0.55566155
H   -1.58347129   1.48511289   0.16352399
C   -2.05568128   1.83948542  -1.69020699
H   -1.63727374   2.45558906  -2.49072971
H   -3.09310207   2.16511112  -1.51555498
H   -2.07325494   0.79451902  -2.03735787
O    1.45761287   2.43899943  -1.23149977
H    0.50620219   2.35762203  -1.06834730
C    1.72272127   3.79179675  -1.56644860
H    2.79855805   3.86570718  -1.74699690
H    1.46410042   4.48944014  -0.75454572
H    1.20020301   4.11373078  -2.48083937
O   -2.58762449  -1.75252509  -0.80935081
H   -1.64667768  -1.96525277  -0.89760786
C   -3.31869817  -2.95669357  -0.97681218
H   -4.37631881  -2.69894347  -0.87439800
H   -3.07571627  -3.71147041  -0.21258116
H   -3.17209562  -3.40850476  -1.97036726
O    1.89169243  -1.81265186   1.41389304
H    2.08332243  -0.86510000   1.35187140
C    3.13143400  -2.50186407   1.43758160
H    2.89713646  -3.56754857   1.50762725
H    3.75203948  -2.23097268   2.30605384
H    3.72434777  -2.34205400   0.52342005
O   -2.25023383   0.12357351   1.26804541
H   -2.52042031  -0.52311232   0.59930034
C   -1.57534815  -0.57961195   2.29886708
H   -1.27799002   0.16367511   3.04357353
H   -0.66598168  -1.08797403   1.94193860
H   -2.21681785  -1.32371234   2.79646989
