42
Energy:   -221.32201879
O    1.65280076  -2.01172204   1.06187055
H    2.11430256  -1.16065763   1.09546726
C    2.48570102  -2.92586429   0.36677712
H    1.95075297  -3.87901418   0.33812282
H    3.45035186  -3.09084320   0.87176033
H    2.68527072  -2.61507669  -0.67070075
O   -1.13225849  -2.24914335   0.89432371
H   -0.16917608  -2.20798170   0.99024697
C   -1.58089982  -3.42162366   1.55503897
H   -2.66748025  -3.45236134   1.43721126
H   -1.35442187  -3.41549394   2.63274370
H   -1.16390186  -4.34222607   1.11756753
O   -1.14351475   2.75993265  -1.12304990
H   -0.94965647   1.99135871  -1.67994877
C   -1.31016219   3.87978964  -1.97784971
H   -1.52783993   4.73654715  -1.33436842
H   -2.15004359   3.75782138  -2.67963337
H   -0.40310798   4.11047013  -2.55820866
O   -0.58589019   0.37089720  -2.48439414
H   -1.30270791  -0.23584140  -2.24677279
C    0.60180997  -0.10514805  -1.87179066
H    1.39892252   0.58972339  -2.14973034
H    0.88737071  -1.10968059  -2.22128566
H    0.53464574  -0.12566931  -0.77277056
O   -2.60116357  -1.18671329  -1.24862890
H   -2.17120632  -1.61556265  -0.49387843
C   -3.44176699  -0.16308526  -0.74058824
H   -3.91814070   0.30953958  -1.60382578
H   -2.88406668   0.61181405  -0.19169958
H   -4.23517681  -0.55162603  -0.08308214
O    0.37217507   2.07756886   1.15276763
H   -0.16563430   2.44864115   0.43758254
C   -0.46913976   1.24809281   1.93806541
H    0.15249948   0.83837698   2.73880431
H   -0.88883007   0.40544968   1.36658492
H   -1.30056042   1.80236681   2.40098803
O    2.72964316   0.57604703   0.98016766
H    1.96072925   1.15756621   1.07519462
C    3.88619936   1.39616099   0.93195316
H    4.74284293   0.72521837   0.82479443
H    4.02764321   1.98630038   1.85092349
H    3.88308570   2.08565153   0.07325040
