27
Energy:   -105.55106459
O    1.83160801   0.15351787  -2.18733823
H    1.97483057  -0.56421264  -1.57042489
H    1.10671574   0.65253298  -1.81084525
C   -2.34749811   1.09862629   1.03603776
H   -1.99607068   0.36306044   1.72910473
H   -3.25383912   0.75643035   0.58178341
H   -2.53243237   2.01671203   1.55354813
C   -1.28266841   1.32844083  -0.05250392
N   -0.48985430   1.49954820  -0.86297267
C   -0.00884777  -2.14104319   2.11947690
H   -0.14542297  -1.22452124   2.65448616
H    0.42150342  -2.87323115   2.77032077
H   -0.95558680  -2.49150542   1.76484960
C    0.93093258  -1.90194230   0.92313094
N    1.63064177  -1.72392081   0.03239700
C    1.95911628   2.75073220   1.18646673
H    2.20429518   2.06442278   0.40303398
H    2.85728914   3.08231509   1.66420870
H    1.44256208   3.59241823   0.77459845
C    1.05699475   2.04987329   2.21921720
N    0.38532427   1.52805198   2.98814687
C   -0.84209640  -1.68062664  -3.10608735
H    0.11493412  -2.14867524  -3.00647172
H   -0.71198108  -0.66600334  -3.41994824
H   -1.42276390  -2.20751874  -3.83417323
C   -1.57104788  -1.70895491  -1.74983249
N   -2.11378540  -1.73004659  -0.74003910
