27
Energy:   -110.00861105
O    0.17656736   0.08555685  -2.74580512
H   -0.40068640   0.57318358  -2.15824226
H    0.75753790  -0.40170120  -2.16160938
C    2.08496592   2.47009153  -1.14325865
H    1.34823664   3.17474327  -1.46821415
H    1.95800295   1.55042997  -1.67523808
H    3.06209252   2.86141578  -1.33558137
C    1.92170498   2.21633009   0.36689068
N    1.80014978   2.02739317   1.49126549
C   -1.84962756  -2.24431668  -1.48430008
H   -1.91365957  -1.23172188  -1.82408216
H   -2.72489875  -2.77889629  -1.78929858
H   -0.98299541  -2.70822589  -1.90695366
C   -1.74503540  -2.26461878   0.05200988
N   -1.66716178  -2.27973462   1.19586248
C   -1.96765224   1.11335284   2.15157678
H   -2.92116204   1.57249722   2.30939211
H   -1.22109322   1.64166457   2.70694642
H   -2.00307955   0.09566344   2.48013772
C   -1.61880836   1.15686624   0.65223875
N   -1.35907824   1.18926395  -0.46408657
C    1.50774279  -1.31006103   2.08369374
H    2.37155271  -0.79196049   2.44467080
H    1.51288755  -2.31369053   2.45463908
H    0.62449012  -0.80945632   2.42156758
C    1.52832126  -1.33175889   0.54398411
N    1.54364287  -1.34791393  -0.60239969
