27
Energy:   -108.58488966
O    1.01736304   2.07000679   0.78134510
H    1.36725562   1.28651592   0.35714103
H    0.65008710   1.75253006   1.60629889
C    0.54544960  -2.01343098   3.21840908
H   -0.29092637  -2.53254821   3.63780474
H    1.39551364  -2.13159969   3.85741327
H    0.76697629  -2.41590337   2.25205459
C    0.20691555  -0.51695358   3.08593230
N   -0.04513843   0.59724186   2.98729732
C    0.64092033  -2.40353850  -1.97427014
H   -0.21457809  -2.04166496  -2.50537294
H    0.34796949  -3.20710030  -1.33133366
H    1.37225473  -2.75379953  -2.67238639
C    1.24125497  -1.26372149  -1.13046004
N    1.68823141  -0.41507592  -0.50220506
C    0.62747990   2.71663175  -2.40422334
H    0.76749984   3.23466343  -3.32993268
H    1.56898226   2.34455241  -2.05777080
H    0.22023438   3.38832958  -1.67767520
C   -0.34297635   1.53982463  -2.61621316
N   -1.06552513   0.66363824  -2.77404921
C   -2.39529077   0.53239738   0.36128209
H   -2.96356369   0.68054515  -0.53315533
H   -1.52843817   1.15933949   0.34105189
H   -2.99601709   0.78169691   1.21091538
C   -1.96042469  -0.94196023   0.45488309
N   -1.63664713  -2.03968648   0.52457328
