27
Energy:   -104.63923403
O   -0.23971617  -3.51199720   0.02163466
H   -0.60752048  -4.27077134   0.47463980
H   -0.62181470  -2.75694867   0.46899837
C   -2.01665914   1.18248052   2.24763289
H   -2.73338703   1.62582050   1.58835224
H   -1.15048899   1.80801985   2.30550267
H   -2.44593391   1.07665913   3.22201685
C   -1.61390879  -0.20360544   1.71082950
N   -1.31404284  -1.23560943   1.31115497
C    0.92379303   3.30161361  -0.91071184
H    1.18180768   3.58189492   0.08917366
H    0.91168969   4.17182271  -1.53319776
H    1.64628820   2.60616903  -1.28388293
C   -0.46999087   2.64668660  -0.91679770
N   -1.50772635   2.15906367  -0.92132891
C    2.45941765  -1.04991394   0.76579483
H    1.65109812  -1.66531727   0.42994001
H    2.99670378  -1.55766558   1.53936512
H    3.11826362  -0.84837638  -0.05286486
C    1.90125648   0.27652853   1.31407073
N    1.48568011   1.26412525   1.72228706
C   -1.01670859  -1.06264301  -2.30007107
H   -1.59903382  -0.67871383  -1.48865509
H   -0.93468063  -2.12556533  -2.20860170
H   -1.49304070  -0.82012755  -3.22699774
C    0.38891018  -0.43444032  -2.26546947
N    1.43545724   0.03328513  -2.23970701
