27
Energy:   -104.03465335
O    1.08057224  -2.07408205  -1.53139614
H    1.39115724  -1.35322641  -0.98354949
H    0.12965675  -2.06604495  -1.42218539
C    1.11063379   2.80369044   1.24419079
H    0.06210961   2.95017889   1.39923390
H    1.48504395   3.56655929   0.59400064
H    1.62051061   2.85380653   2.18355924
C    1.34701300   1.42276353   0.60484288
N    1.52300806   0.39460068   0.12881931
C   -2.46194105   0.80678543   0.89259317
H   -3.32862700   0.49410976   1.43664241
H   -2.69375219   1.68456388   0.32631790
H   -1.66948050   1.02353294   1.57810458
C   -2.02147642  -0.31849653  -0.06204363
N   -1.69353048  -1.15632009  -0.77281413
C    0.12461825   0.50662390  -3.54133366
H    0.08363656   0.88194824  -4.54250913
H   -0.48095505  -0.37219628  -3.46481466
H    1.13677762   0.26512569  -3.29211263
C   -0.40157969   1.57886032  -2.56920981
N   -0.79335797   2.37718908  -1.84541941
C    0.81508200  -2.79441535   2.29353479
H    1.76166833  -2.95215239   2.76681432
H    0.96471484  -2.60440471   1.25122723
H    0.20668733  -3.66642117   2.41337163
C    0.11297811  -1.58582651   2.94003549
N   -0.40977016  -0.68597718   3.42138464
