27
Energy:   -105.64848561
O    1.97935408   0.89592043  -1.93325248
H    1.57608909   1.42789912  -1.24724383
H    1.66848236   0.00703895  -1.76155412
C    2.89041826  -1.10977515   2.11097070
H    3.51204306  -1.96561350   1.94965262
H    3.33031392  -0.48563007   2.86052645
H    2.79737382  -0.55937330   1.19811824
C    1.49653429  -1.56847809   2.57817418
N    0.45872432  -1.91000328   2.92602841
C   -1.73977621  -2.36328783   0.20515867
H   -1.68526473  -3.42758428   0.30108444
H   -2.55251745  -2.10456758  -0.44091764
H   -1.89710942  -1.92590274   1.16892194
C   -0.42204760  -1.83336694  -0.39013552
N    0.55906124  -1.43881675  -0.83335910
C   -1.28908134   1.30446715   2.05991165
H   -1.59951995   2.14766435   2.64089919
H   -0.83557480   0.57735022   2.70063926
H   -2.13979938   0.87218391   1.57585679
C   -0.27059237   1.75956387   0.99823035
N    0.48771897   2.09840406   0.20776036
C   -1.08102422   1.65350409  -3.23695460
H   -0.63969626   0.84908275  -3.78744176
H   -0.30946032   2.28005911  -2.84070081
H   -1.70864086   2.22774659  -3.88598618
C   -1.92338449   1.08301770  -2.08085147
N   -2.55056000   0.65826465  -1.22008013
