27
Energy:   -107.09763761
O   -0.62921826  -0.24923832  -2.14121224
H   -0.36152492   0.62470794  -2.42544815
H    0.04866631  -0.51807329  -1.52118634
C    1.23727881  -0.88396481   2.65873136
H    1.10101779   0.11604500   3.01413746
H    2.17073855  -1.26553370   3.01644239
H    0.43939564  -1.50115057   3.01561127
C    1.23826391  -0.88577129   1.11873273
N    1.23899737  -0.88711629  -0.02786624
C   -2.22028285   1.51251890   0.25054668
H   -3.08062859   1.85138077   0.78894990
H   -2.26455346   0.44914033   0.14025067
H   -2.20110842   1.97087268  -0.71611937
C   -0.94590611   1.89559524   1.02567019
N    0.00292529   2.18081299   1.60278487
C    2.60325227   2.33578989  -0.71652445
H    2.89204459   1.32366690  -0.52389468
H    2.34315076   2.81396124   0.20466959
H    3.41808234   2.85863810  -1.17213480
C    1.38921059   2.35177057  -1.66386146
N    0.48530138   2.36366891  -2.36919694
C   -1.27353126  -3.26037847  -0.70787456
H   -1.70323510  -2.67739105  -1.49551690
H   -1.65206468  -4.25999137  -0.75671696
H   -0.20911884  -3.27639120  -0.81589718
C   -1.64223264  -2.63770172   0.65151242
N   -1.91674759  -2.17409058   1.66363782
