27
Energy:   -108.37272236
O    0.24609638   1.22787977  -1.94646124
H    0.94300038   1.64605466  -1.44080680
H   -0.49225882   1.17522380  -1.33959158
C    1.28401575   2.82806714   2.49030404
H    0.30515396   3.25827092   2.44962872
H    1.96167200   3.52512870   2.93727863
H    1.25603726   1.93262238   3.07536385
C    1.75779552   2.49441822   1.06348551
N    2.11054610   2.24600143   0.00115426
C   -2.09866426  -1.21603387   1.91784727
H   -1.58230198  -1.00665643   2.83131936
H   -1.73904085  -2.13658400   1.50777708
H   -3.14776195  -1.29770912   2.11181192
C   -1.84951195  -0.07492349   0.91415895
N   -1.66400672   0.77468505   0.16686738
C   -1.57633026  -1.13570028  -3.21271498
H   -2.16007436  -0.30442830  -2.87636710
H   -2.12776141  -1.68492222  -3.94700241
H   -0.66422299  -0.77968536  -3.64423879
C   -1.25527852  -2.05403847  -2.01890563
N   -1.01624091  -2.73778300  -1.13006032
C    2.03581091  -1.46884010  -0.16553225
H    1.61085572  -2.41933932  -0.41223953
H    3.10329540  -1.53967436  -0.18446572
H    1.71412421  -0.73850764  -0.87829537
C    1.57403661  -1.05001538   1.24264045
N    1.23022465  -0.73818134   2.29108903
