27
Energy:   -108.08560238
O    2.09410923  -0.29429456  -1.38739692
H    1.18863420  -0.57607163  -1.51758333
H    2.10383055   0.08336193  -0.50790109
C    1.57235932   2.94088863  -1.98444631
H    1.83405737   2.04925946  -2.51492886
H    2.31647240   3.14651141  -1.24355895
H    1.51583386   3.76030985  -2.67019614
C    0.20609512   2.74887068  -1.30030358
N   -0.81115067   2.60590458  -0.79092823
C   -3.18310564  -0.70555980  -0.29286668
H   -3.87622684  -1.36388794  -0.77358204
H   -3.50284673   0.30701024  -0.42464920
H   -3.14085786  -0.93315568   0.75179324
C   -1.78614386  -0.88783574  -0.91485804
N   -0.74604231  -1.02354846  -1.37795888
C   -0.87013641   1.00766303   2.25896128
H   -1.53237303   1.23224003   1.44907980
H   -0.85822637   1.82658457   2.94752846
H   -1.20692743   0.12465195   2.76072051
C    0.55057756   0.77668067   1.71140401
N    1.60836368   0.60470381   1.30372273
C    1.21412331  -2.92953112   0.71713186
H    1.06480901  -2.81030187  -0.33566908
H    1.58007970  -3.91511933   0.91610648
H    1.92642503  -2.20856399   1.06025245
C   -0.12286375  -2.72027522   1.45216763
N   -1.11831138  -2.56447469   1.99943517
