27
Energy:   -106.47331213
O    0.36091441  -0.70127654  -1.81759213
H   -0.33539029  -0.20394043  -1.38858349
H    1.04048135  -0.05282661  -2.00180211
C    1.07753620   3.49133593  -0.51629502
H    1.37589426   4.42658433  -0.94196282
H    1.38914414   3.44936977   0.50646518
H    0.01282119   3.39902747  -0.56883249
C    1.73203601   2.33853040  -1.30004843
N    2.21934087   1.48021429  -1.88358847
C   -2.29559438  -2.73117149  -1.39270024
H   -2.97185852  -1.91270652  -1.52567426
H   -2.80776897  -3.65137882  -1.58189521
H   -1.47700596  -2.63186797  -2.07457332
C   -1.76328545  -2.72766136   0.05237239
N   -1.36695726  -2.72504790   1.12829464
C   -1.81250278   0.63707420   2.43619102
H   -2.45191201   1.42648102   2.77218638
H   -0.85707449   0.72600318   2.90963322
H   -2.24882099  -0.30693286   2.68793730
C   -1.63936160   0.73159186   0.90887686
N   -1.51045013   0.80196456  -0.22827795
C    2.48654130  -1.22783887   0.69873128
H    3.03040224  -0.98467832  -0.19008164
H    1.63278897  -1.82023281   0.44363233
H    3.11784718  -1.77968277   1.36342693
C    2.02394388   0.06904112   1.38844565
N    1.67951908   1.03462723   1.90196934
