27
Energy:   -107.19296581
O    0.15198830  -0.01520443  -2.63020173
H   -0.39468690   0.52360367  -2.05830672
H    0.57719309  -0.63699732  -2.03960344
C    2.48774530   2.16893719  -1.59560996
H    3.16447635   2.94098397  -1.89707147
H    1.51940677   2.36254065  -2.00760181
H    2.84375271   1.22418422  -1.95001038
C    2.39505739   2.13886067  -0.05869606
N    2.32604702   2.11646734   1.08560621
C   -2.76677012  -1.91739315  -1.09248900
H   -2.76444471  -0.95885780  -1.56799373
H   -3.73551312  -2.36128110  -1.18944046
H   -2.03751047  -2.54772939  -1.55698407
C   -2.42543938  -1.75088741   0.39994833
N   -2.17130313  -1.62691632   1.51113575
C   -0.96810856   1.59195828   1.94223111
H   -1.54035982   0.80622219   2.38949778
H   -1.30258373   2.53584311   2.31920175
H    0.06668020   1.45936667   2.17999314
C   -1.15242291   1.55517502   0.41374323
N   -1.28965332   1.52778822  -0.72428548
C    1.15179181  -1.93103531   2.28812930
H    2.03449179  -1.49455225   2.70672633
H    1.14392160  -2.98200092   2.48889894
H    0.28738217  -1.47769135   2.72650622
C    1.13679459  -1.69911578   0.76576653
N    1.12562847  -1.52644116  -0.36770176
