27
Energy:   -106.62605940
O   -0.07646795  -1.24953790  -1.48739392
H   -0.33909997  -1.31991112  -0.56962277
H    0.87087214  -1.38618391  -1.47707559
C    1.12664279   1.85892573  -1.76689812
H    1.27503714   2.82074714  -2.21162149
H    0.10573416   1.56294676  -1.88954029
H    1.76490999   1.14380225  -2.24241098
C    1.46378410   1.92985372  -0.26593011
N    1.71480112   1.98266283   0.85160880
C   -3.36840764  -0.90543166  -1.70419595
H   -4.43508358  -0.94795060  -1.77696107
H   -3.02060643  -1.70856305  -1.08863656
H   -2.94048619  -0.99355595  -2.68093360
C   -2.94965169   0.43850818  -1.07964077
N   -2.63786885   1.43913247  -0.61463105
C   -1.13151957   1.15483933   2.61933201
H   -0.81443497   1.08912968   3.63915541
H   -2.18968236   1.30959323   2.58409240
H   -0.63511812   1.97469507   2.14359968
C   -0.77936736  -0.15329956   1.88696498
N   -0.51717402  -1.12726843   1.34168444
C    2.95339515  -1.24500887   1.71704137
H    2.18355563  -1.84153621   2.16021450
H    2.84037068  -0.22771707   2.02887779
H    3.91027920  -1.60915082   2.02796363
C    2.84686142  -1.32650311   0.18289364
N    2.76754222  -1.38717927  -0.95934908
