61
Energy:  -2132.09181204
O   -3.28534243  -0.10838568   2.06212223
H   -3.06377041  -0.08240101   2.99296190
H   -4.23494124  -0.22750947   2.04470157
O    1.62043291   2.40183571   3.63550186
H    1.64862788   3.12397982   3.00785165
H    2.41875743   2.50306636   4.15382816
O    1.01218799   0.25901678   2.04173453
H    1.33168371   0.94606058   2.62664919
H    0.69457736  -0.42725183   2.62858266
O   -0.97725003   2.56363730   4.61241947
H   -1.03190593   3.06265057   5.42742275
H   -0.03890123   2.49132252   4.43776567
O    3.05527394   1.35674294  -2.12626389
H    3.91436431   1.60837294  -2.46520036
H    2.49140581   1.32780355  -2.89921091
O   -0.43035046  -1.66938678   3.32924265
H   -0.19520952  -2.41636068   3.87967027
H   -1.05525381  -1.17071241   3.85559949
O   -0.57374048   0.28450185  -1.76400447
H   -1.12598475  -0.44404867  -2.04768080
H   -0.17147947   0.60865378  -2.56982297
O    0.01914644  -3.82990737  -5.62465443
H    0.65023405  -4.38171548  -6.08668050
H   -0.67784925  -3.67662420  -6.26256754
O   -0.54354864  -4.24928504  -2.93432570
H   -0.40984841  -4.16536893  -3.87842007
H   -0.82789593  -5.15502320  -2.81178241
O    1.21563638   4.17720943   1.55650194
H    1.52306714   5.07667968   1.44393437
H    0.27915983   4.26417387   1.73449271
O    1.87590646  -0.67218047  -0.64788985
H    2.53583696  -0.18567172  -1.14188662
H    1.89656251  -1.55277713  -1.02252928
O   -1.38185920   1.34864850   0.86129223
H   -1.47139637   2.23522474   1.21085984
H   -2.13467747   0.87436392   1.21420955
O   -1.43864271   3.76047412   2.16181547
H   -1.41916821   3.43586306   3.06208224
H   -2.17002263   4.37775368   2.14504630
O   -1.96420120  -2.13511031  -1.85446330
H   -2.88909555  -2.24594724  -2.07473012
H   -1.52699156  -2.87567805  -2.27474773
O    1.77217779  -3.07629093  -1.96842049
H    0.99682481  -3.59477895  -2.18343157
H    2.48059373  -3.71726345  -1.90898207
O   -0.70393830  -1.46088820   0.51898579
H   -1.28426983  -1.92448961  -0.08476987
H   -0.91587927  -1.82139466   1.38000145
O    0.97639360   1.02929562  -3.89701401
H    1.06302392   0.11854218  -4.17853702
H    0.78619091   1.51206433  -4.70137038
O    1.11353828  -1.63887853  -4.25560084
H    0.78747001  -2.29671286  -4.86973870
H    1.49068804  -2.14706512  -3.53745301
O   -2.17910736   0.05428954   4.59118459
H   -1.80069992   0.92962983   4.67376203
H   -2.63156615  -0.09093059   5.42210216
O    1.22512024   2.09849783  -0.22278078
H    1.94024939   2.14727436  -0.85716474
H    1.30026354   2.90573008   0.28610174
Ca   0.24442937   0.32375544   0.12693996
