61
Energy:  -2139.12884402
O   -2.97387811  -0.51891987   1.66538770
H   -2.86164618  -0.39745982   2.60819378
H   -3.90028181  -0.73544363   1.55991034
O    1.54978067   2.28397169   3.51463041
H    1.62941581   3.02213262   2.91047105
H    2.32370059   2.34737113   4.07432705
O    0.94598992   0.14639997   1.90776614
H    1.26569499   0.83340191   2.49261556
H    0.62957774  -0.54036874   2.49467662
O   -1.08402506   2.49122392   4.38303348
H   -1.15505948   2.97495698   5.20594798
H   -0.14237557   2.38687409   4.24650803
O    3.30235339   1.14038799  -2.12961589
H    4.19284436   1.38197212  -2.38436044
H    2.85385520   0.96942478  -2.95777820
O   -0.24302133  -1.62689688   3.52532217
H   -0.03557181  -2.35134782   4.11554872
H   -0.97491014  -1.17619640   3.94655807
O   -0.28500129   0.39288453  -2.00560495
H   -1.11833930   0.04340865  -2.32127284
H    0.25508193   0.47254439  -2.79185953
O   -1.31615165  -3.11361972  -3.89208991
H   -1.69652508  -3.65504442  -4.58375977
H   -0.45738371  -2.86026582  -4.23055892
O   -0.67444363  -3.76117768  -1.29520129
H   -1.01417993  -3.62489148  -2.17964301
H   -1.06306654  -4.58944689  -1.01382220
O    1.29178894   4.11502227   1.46014434
H    1.61686814   5.01157677   1.37801405
H    0.34853211   4.21274079   1.59033458
O    1.96418730  -0.80147721  -0.70607821
H    2.67023577  -0.31958783  -1.13678696
H    2.04871075  -1.69628900  -1.03531900
O   -1.31467231   1.35262977   0.58482158
H   -1.41405609   2.22913895   0.95642133
H   -2.06767811   0.86416576   0.91741296
O   -1.40129771   3.73248377   1.93651482
H   -1.42293901   3.39937755   2.83362337
H   -2.10534309   4.38016589   1.90395992
O   -2.50646526  -0.85361666  -2.82673366
H   -3.35319336  -0.63589100  -3.21645013
H   -2.23190651  -1.65110231  -3.27935489
O    1.96211233  -3.27041467  -1.87759264
H    1.10575546  -3.61972280  -1.63087701
H    2.57631304  -3.97648353  -1.67645561
O   -0.78444758  -1.45087901   0.19237956
H   -0.81989481  -2.28167341  -0.28170483
H   -1.56386390  -1.45816882   0.74797735
O    1.48957210   0.37380032  -4.09055790
H    1.46990059  -0.55757162  -4.31053788
H    1.36839734   0.82085103  -4.92822979
O    1.31182583  -2.36473905  -4.41654709
H    1.80331707  -2.79572179  -5.11577673
H    1.66539899  -2.73825829  -3.60926694
O   -2.33812883   0.00757282   4.29922113
H   -1.95474151   0.87902300   4.39832005
H   -2.90186585  -0.09520739   5.06594706
O    1.42968088   1.99908301  -0.27097396
H    2.16517934   2.04841936  -0.88158004
H    1.47440647   2.81645124   0.22515167
Ca   0.32485997   0.26954861  -0.04730813
