61
Energy:  -2135.74537655
O   -3.26269917  -0.07752845   1.77648701
H   -3.10079262   0.01856617   2.71498791
H   -4.21573317  -0.12506402   1.70099919
O    1.71827989   1.90423385   3.53194007
H    1.90849472   2.62204369   2.92795398
H    2.50420382   1.83162778   4.07349690
O   -1.33705331   1.48775589   0.64734094
H   -1.27707243   2.36383777   1.02828014
H   -2.14988660   1.12715713   1.00160415
O   -0.82366076   2.54945260   4.45702945
H   -0.79824087   3.03445848   5.28186578
H    0.08478296   2.29014859   4.30300577
O    3.12902855   0.56711643  -2.13376559
H    4.04671422   0.56932368  -2.40594196
H    2.63893266   0.72368680  -2.94093570
O   -0.73578465  -1.65878138   3.52542806
H   -0.64596748  -2.42347756   4.09411469
H   -1.35765131  -1.09201578   3.98181655
O   -0.53340814   0.36763690  -1.97652220
H   -1.12669810  -0.23022742  -2.43127172
H   -0.00727107   0.75980264  -2.67338492
O   -1.84513290  -1.56698854  -3.41598550
H   -2.65737335  -1.45676674  -3.91030164
H   -1.15836275  -1.57991811  -4.08262741
O    1.19390239  -3.81926858  -1.30794016
H    1.48134343  -4.63985775  -0.90763663
H    0.24294933  -3.90525477  -1.37521949
O    1.72195744   3.76419253   1.48631497
H    2.19325460   4.59340479   1.40558161
H    0.81234445   4.01918314   1.64063880
O    1.51280838  -1.17520412  -0.69567719
H    2.24599803  -0.86360951  -1.22631227
H    1.50036983  -2.12199279  -0.83592104
O    0.71637199  -0.07716085   1.92515717
H    1.16292184   0.53643168   2.50853466
H    0.30068452  -0.70792437   2.51301188
O   -0.98717271   3.83284156   2.01767175
H   -1.04245976   3.50352466   2.91473672
H   -1.57340725   4.58938062   2.00319583
O   -1.54529782  -3.49081373  -1.45869414
H   -2.17737909  -4.20862639  -1.49677421
H   -1.72851770  -2.96804252  -2.23931734
O    2.11886586  -2.89490349  -3.75320823
H    1.85868246  -3.34858322  -2.95151556
H    2.83127447  -3.42599425  -4.10908522
O   -1.28802815  -1.35739513   0.23577344
H   -1.45133260  -2.17217050  -0.23931034
H   -2.02853846  -1.27762369   0.83703282
O    1.16660999   1.01591631  -4.02817928
H    0.93762604   0.23223513  -4.52782116
H    1.16314201   1.72205206  -4.67439297
O    0.32397390  -1.37601587  -5.09091895
H    0.33252319  -1.61057628  -6.01889533
H    0.97580154  -1.95220899  -4.69172720
O   -2.47498023   0.31040300   4.39201871
H   -1.94938742   1.10457948   4.48828795
H   -3.02948015   0.29356868   5.17206890
O    1.44541324   1.68586764  -0.27236543
H    2.19624655   1.57845453  -0.85626920
H    1.64548922   2.47350360   0.23343201
Ca   0.09128408   0.15377829  -0.01859123
