61
Energy:  -2132.78907803
O   -3.53879045  -0.37566820   1.04859314
H   -3.33656596  -0.17101319   1.96152985
H   -4.48549424  -0.51665550   1.03827993
O    1.21857705   1.67437441   5.00812503
H    0.37688038   1.40410756   5.37518686
H    1.72468043   1.97388869   5.76336169
O    2.03600091  -0.38671624   3.34655398
H    1.88562292   0.27727339   4.01941064
H    2.70341530  -0.96140111   3.72142353
O   -1.27149221   0.81215587   5.94147377
H   -1.76607204   1.41155863   6.50034672
H   -1.26360762  -0.01448369   6.42400534
O    3.46566148   0.65949616  -1.14722886
H    4.41655834   0.75379985  -1.09124838
H    3.27443325   0.70782022  -2.08388696
O   -0.15294355  -0.35814514   1.80438633
H    0.61982768  -0.48131782   2.35564395
H   -0.84076934  -0.08720252   2.41243043
O   -0.00688450   0.65715887  -2.16811650
H   -0.75564682   0.57525136  -2.75877545
H    0.74911007   0.74111336  -2.74919800
O   -1.03469754  -2.13605313  -4.99399859
H   -1.26879140  -2.45024303  -5.86733507
H   -0.08277298  -2.03937120  -5.02090738
O   -1.37015112  -3.30056301  -2.52191571
H   -1.38486835  -2.95103397  -3.41289534
H   -1.96098686  -4.05314543  -2.54956863
O    1.16347879   3.10111410   2.62715054
H    1.70710452   3.88125861   2.73704804
H    1.23349444   2.64011408   3.46309829
O    1.48374824  -1.15240628  -0.52683462
H    2.35486855  -0.77660789  -0.65394409
H    1.50088688  -1.97107415  -1.02253719
O   -1.66362391   1.42960646   0.13910735
H   -1.65889495   2.19904403   0.70847131
H   -2.51927271   1.02684946   0.28703897
O   -1.55600637   3.20246952   2.21517705
H   -1.95672373   4.06568261   2.31774706
H   -0.63087833   3.34176122   2.41758207
O   -2.07350052   0.12171618  -3.77639520
H   -2.75977040   0.56940901  -4.27120487
H   -1.82739434  -0.62202851  -4.32640196
O    1.35761156  -3.31533642  -2.20055831
H    0.41998815  -3.48596510  -2.28988945
H    1.73975212  -4.17101866  -2.00560103
O   -1.46514539  -1.34039673  -0.59166503
H   -1.54907314  -2.02185884  -1.25859634
H   -2.29824402  -1.36154409  -0.12078148
O    2.28417268   0.58937830  -3.65873168
H    2.16648110  -0.26639087  -4.07109035
H    2.49570089   1.17790096  -4.38338935
O    1.71466833  -1.94894137  -4.58880462
H    2.31501916  -2.38642570  -5.19247522
H    1.71854580  -2.49923860  -3.80561258
O   -2.15235942   0.70072356   3.29090303
H   -2.08880726   1.62915045   3.06681271
H   -1.98295537   0.66896182   4.23245776
O    1.28178387   1.61045807   0.29368013
H    2.16456757   1.59607304  -0.07607363
H    1.36141044   2.14414764   1.08429185
Ca  -0.08801629   0.14095405  -0.18607618
