61
Energy:  -2135.92014476
O   -3.67803422  -0.41228506  -0.20149853
H   -4.59293151  -0.57228340   0.03000811
H   -3.68648339  -0.30434768  -1.15255583
O    1.86903609   2.30640239   4.63819757
H    0.98752728   2.09020393   4.94222435
H    2.31479829   2.64394052   5.41511192
O    2.84382755   0.24259172   3.07705380
H    2.62277352   0.92835691   3.70720701
H    3.64002330  -0.15725515   3.42694901
O   -1.24693446  -0.67608107   3.95072384
H   -1.14080110   0.12117583   4.46971228
H   -1.57390147  -1.32576945   4.57300146
O    1.38730434   0.73363799  -3.81047930
H    1.39664613   1.32378721  -4.56404978
H    1.27580546  -0.13812245  -4.18973326
O    0.55736187  -0.61115295   1.97415089
H    1.39466868  -0.41577647   2.39483746
H   -0.05280783  -0.73677731   2.70088557
O   -0.48893535   0.54083207  -1.82836806
H   -1.34325571   0.41870267  -2.24243687
H    0.10831450   0.71236129  -2.55644924
O   -1.81721243  -2.37832827  -4.08510481
H   -2.24478165  -2.78451759  -4.83904556
H   -0.93332020  -2.17511916  -4.39116431
O   -1.08039033  -3.78987194  -1.82479630
H   -1.51742288  -4.63399358  -1.71213282
H   -1.45743405  -3.42966106  -2.62749052
O    1.26023403   3.50326550   2.24144995
H    1.68703297   4.35603201   2.15860192
H    1.58176261   3.15370654   3.07250936
O    1.61353496  -1.07564858  -0.73814393
H    2.37657599  -0.57365432  -1.02450385
H    1.67726426  -1.90265052  -1.21588677
O   -1.55405202   1.05005518   0.83968113
H   -1.61400173   1.74371985   1.49654276
H   -2.46216893   0.79591203   0.67546546
O   -1.41809313   3.06872108   2.69366583
H   -1.96268021   3.85545835   2.66718531
H   -0.52946498   3.38646622   2.53363494
O   -2.92246164  -0.13799108  -2.88084121
H   -3.45181347   0.35181629  -3.51021171
H   -2.65628470  -0.92664743  -3.35349633
O    1.56893436  -3.29435052  -2.33493134
H    0.71090736  -3.67188762  -2.14131510
H    2.17566512  -4.03191085  -2.27078784
O   -1.23117731  -1.64673170  -0.12739468
H   -1.17615294  -2.47031339  -0.61207743
H   -2.17003819  -1.48238885  -0.03928391
O    3.17898304   0.97159475  -1.67911801
H    4.09856899   1.18139079  -1.84214915
H    2.76884615   1.00271597  -2.54343916
O    0.86811490  -1.86803902  -4.60013270
H    1.27583595  -2.20131724  -5.39945805
H    1.23173979  -2.41114854  -3.90081815
O   -0.81225933   1.80231274   5.08681384
H   -1.16956966   2.29436318   4.34759293
H   -1.31562836   2.10524129   5.84251600
O    1.27467220   1.61407464   0.24134718
H    2.06083513   1.70080842  -0.29777892
H    1.36525626   2.29405331   0.90892143
Ca   0.03775691  -0.02995686   0.09680725
