61
Energy:  -2130.71336639
O   -3.54093665   0.69696641   1.93801186
H   -3.22364764   0.74762536   2.83967322
H   -4.34156304   1.22158336   1.93550277
O    1.23974482  -0.21751795   3.77574943
H    2.04716257  -0.53191244   4.18252275
H    0.55091786  -0.76115384   4.15812265
O    0.42106343  -0.88180705   1.22976596
H    0.87501533  -0.59554614   2.02236561
H   -0.09910614  -1.63493362   1.50986564
O   -1.01944213  -1.51542790   4.66872017
H   -1.61533875  -0.76713512   4.70331755
H   -1.19127634  -1.99667511   5.47810634
O    3.51765362   1.88523970  -1.95260282
H    3.86196806   1.00070781  -2.07622616
H    4.29592941   2.43691852  -1.87405903
O   -1.23497831  -2.71809728   2.15613312
H   -2.14756707  -2.66956581   1.87142573
H   -1.26380336  -2.51217959   3.09047721
O   -0.43050534   0.88661977  -2.38987366
H   -1.05491454   0.46098519  -2.97739405
H    0.20868999   1.29476367  -2.97389399
O   -3.56581052  -1.87621390   0.89826195
H   -3.75127332  -1.03742143   1.32047348
H   -4.41091674  -2.32506957   0.87468426
O    0.51922608  -2.39676492  -3.90933079
H    1.19695717  -1.92084320  -4.38934218
H    0.61675831  -3.30543811  -4.19399261
O    0.01842591   2.21013956   4.13670871
H    0.37861682   2.69848423   4.87698828
H    0.54968715   1.41513909   4.09235117
O    3.87166665  -0.80415523  -2.38967750
H    4.64972473  -1.35724338  -2.31931444
H    3.59879690  -0.88890415  -3.30323734
O   -1.32837949   1.28447872   0.43395543
H   -0.98865164   2.08711664   0.82966898
H   -2.15057242   1.11885347   0.89525675
O    0.28612671   3.17952756   1.57542753
H    0.23284100   2.94651373   2.50230241
H    0.28042326   4.13668087   1.56788637
O   -1.90901408  -1.09283013  -3.62526512
H   -1.19025195  -1.63941625  -3.94284417
H   -2.60516136  -1.21268247  -4.27121113
O    1.28241130  -1.22423185  -1.55483141
H    2.23260005  -1.16345218  -1.65321338
H    1.00101331  -1.78040028  -2.28127735
O   -1.59390176  -1.27997472  -0.90390185
H   -1.92505891  -1.42455334  -1.79027864
H   -2.29182390  -1.59928403  -0.33190701
O    1.63609888   1.76172696  -3.97380363
H    1.57242224   2.51812670  -4.55693017
H    2.34981822   1.98011724  -3.37451885
O    2.53967483  -0.73872068  -4.82547952
H    2.91295366  -0.75331643  -5.70677500
H    2.21525054   0.15527136  -4.71704080
O   -2.40285357   0.88413728   4.44736379
H   -2.90370788   1.23282541   5.18478727
H   -1.62967330   1.44602185   4.39530746
O    1.45323670   1.41683601  -0.22788193
H    2.22878598   1.66278283  -0.73212922
H    1.32846454   2.13891093   0.38796834
Ca  -0.03234232   0.01430210  -0.55493204
