61
Energy:  -2137.91705647
O   -3.39478705   0.09925026   1.79749911
H   -3.22737367   0.17591037   2.73682219
H   -4.34807971   0.13697301   1.71976906
O    1.77289495   1.67120454   3.54623178
H    2.00745038   2.35610881   2.92003553
H    2.55820417   1.55603444   4.08126182
O    0.65415546  -0.24004597   1.93545508
H    1.14145881   0.34772867   2.51276632
H    0.18697605  -0.82724789   2.52973545
O   -0.71885046   2.49131864   4.47897971
H   -0.65526706   2.97171760   5.30445281
H    0.16694246   2.16374300   4.32310488
O    2.97933696   1.24110632  -2.62304731
H    3.62584745   1.86063124  -2.96134438
H    2.30277070   1.20707003  -3.29931018
O   -0.90582136  -1.67140609   3.58048869
H   -0.87109281  -2.42642553   4.16783137
H   -1.50839669  -1.06257817   4.00764602
O   -0.68158885   0.21887717  -1.93078761
H   -1.41314505  -0.31602130  -2.23891256
H   -0.23427412   0.49696742  -2.73004176
O   -0.77004069  -3.49904466  -3.63913211
H   -0.96424430  -4.20454295  -4.25621311
H   -0.03437586  -3.03076269  -4.03377258
O   -0.44568742  -3.70585268  -0.90525083
H   -0.59737218  -3.76306603  -1.84862256
H   -0.41719199  -4.61629317  -0.61111145
O    1.86395717   3.44037204   1.42335972
H    2.39969542   4.22847928   1.33334102
H    0.98316273   3.76834638   1.60464907
O    1.20085424  -1.54481871  -0.65633640
H    1.96613389  -1.59180000  -1.22937364
H    0.80606074  -2.41507340  -0.71135201
O   -1.30644771   1.45079266   0.67972840
H   -1.19017597   2.32184417   1.05917800
H   -2.15007131   1.15184896   1.01908621
O   -0.79885854   3.77355691   2.03638103
H   -0.87454993   3.45137070   2.93454510
H   -1.33285772   4.56780206   2.02052639
O   -2.52051997  -1.53795420  -2.77843681
H   -3.39568639  -1.57698637  -3.16417258
H   -2.04938278  -2.26921100  -3.17784274
O    3.19356877  -1.51338495  -2.52954089
H    3.35402881  -0.57204836  -2.59564583
H    4.06508917  -1.90001699  -2.44468982
O   -1.48822970  -1.39805569   0.34660231
H   -1.53768928  -2.29423040   0.01395163
H   -2.27869752  -1.29476981   0.87643672
O    0.79418585   0.68732888  -4.19278694
H    0.92764083  -0.21709730  -4.47639741
H    0.45342918   1.13404951  -4.96774334
O    1.37200870  -1.98942728  -4.57711885
H    1.79104530  -2.29586738  -5.38131699
H    2.07798381  -1.97002036  -3.93101177
O   -2.54821203   0.39419818   4.40899240
H   -1.96164417   1.14436211   4.50606999
H   -3.09739083   0.41597574   5.19267616
O    1.46917933   1.38567903  -0.34384965
H    2.06782104   1.43083293  -1.08938374
H    1.69793255   2.14380814   0.19387152
Ca  -0.01073191  -0.00760493   0.00192845
