61
Energy:  -2132.33095648
O   -3.39784858   0.03505890   1.67178021
H   -3.25712828  -0.02577244   2.61662368
H   -4.34664740   0.11685578   1.57523015
O    1.74150473   0.98374550   3.79265928
H    2.32066111   0.65497857   4.48020713
H    0.94616659   1.24821207   4.25496494
O    0.58991852  -0.56681152   1.84933606
H    1.09987474  -0.10660960   2.51596242
H    0.07146262  -1.20372689   2.34104139
O   -0.71019087   1.90602719   4.68097654
H   -0.76647231   2.54932180   3.97440999
H   -0.78548750   2.42317280   5.48292584
O    3.08530008   1.40022483  -2.44661465
H    3.86707948   1.91826784  -2.63814601
H    2.41539275   1.75071248  -3.03365334
O   -1.10909954  -2.14071639   3.19955240
H   -1.13016502  -2.96744394   3.68153752
H   -1.66836103  -1.55267046   3.70715501
O   -0.56369362   0.46408055  -1.97332193
H   -1.04327639  -0.12570824  -2.55502752
H   -0.18434570   1.12093876  -2.55715778
O   -1.17425432  -3.80495008  -2.91563170
H   -1.52514843  -4.45848517  -3.52060860
H   -1.38610357  -2.96422295  -3.32125424
O   -0.31551153  -3.79784085  -0.36564660
H   -0.62962955  -3.94453934  -1.25785805
H   -0.20803291  -4.67653764  -0.00154202
O    2.14045857   2.95799357   1.92467164
H    2.88685913   3.54459447   2.04721734
H    2.19622865   2.34269082   2.65578317
O    2.64923197  -1.23982467  -3.14890150
H    3.01230549  -0.37498178  -2.95796632
H    3.41441081  -1.78895324  -3.31975526
O   -1.21756798   1.39999604   0.75846618
H   -1.04207068   2.19727457   1.25824563
H   -2.08675558   1.12206144   1.04742487
O   -0.53131200   3.48266878   2.39468727
H    0.41312092   3.53386064   2.24752174
H   -0.83481161   4.38762105   2.32270657
O   -1.55004490  -1.23320194  -3.87498449
H   -0.80204858  -1.07399845  -4.45064724
H   -2.31576876  -1.08452620  -4.42977665
O    1.16484141  -1.54802229  -0.86451620
H    0.89792094  -2.45817166  -0.73562309
H    1.70976490  -1.56685310  -1.65124083
O   -1.55635553  -1.37431099   0.09025485
H   -1.43076372  -2.32278537   0.06101645
H   -2.33514642  -1.25197537   0.63316423
O    0.80009039   1.91666167  -3.88084781
H    0.54385944   2.66902538  -4.41425798
H    0.78581947   1.17638077  -4.48748805
O    0.81355499  -0.55097958  -5.12457574
H    1.07596719  -0.80083029  -6.01054770
H    1.48589035  -0.93090196  -4.55901762
O   -2.60465962  -0.09872287   4.31196284
H   -3.16835031  -0.16011787   5.08314072
H   -1.98604143   0.60088008   4.52196068
O    1.56770398   1.29728726  -0.17504775
H    2.19681709   1.38852766  -0.89067596
H    1.86002029   1.92765530   0.48329802
Ca   0.00905781  -0.04760019  -0.05783497
