61
Energy:  -2136.78195664
O   -3.45891841  -0.10561603   1.45535198
H   -3.37604809  -0.21864162   2.40223612
H   -4.40040939  -0.01999021   1.30536933
O    1.46006316   0.79899572   3.85498797
H    1.99353631   0.42521030   4.55635999
H    0.63731048   1.03908384   4.28121276
O    0.48431793  -0.66441951   1.75198677
H    0.92788665  -0.22710967   2.47878711
H   -0.05157149  -1.33911151   2.16893411
O   -1.02944138   1.67937338   4.66860444
H   -1.14907967   2.15265209   5.49196693
H   -1.06087296   2.35842653   3.99471222
O    3.27597277   1.58799884  -2.17268963
H    3.65203597   0.70782331  -2.18265720
H    4.02636503   2.17090844  -2.28827379
O   -1.26654590  -2.29854019   2.95027910
H   -1.34666841  -3.17983359   3.31515464
H   -1.85218857  -1.76303496   3.48552545
O   -0.47510924   0.64045097  -2.02864483
H   -1.35233635   0.53190950  -2.39596375
H    0.08251193   0.81551780  -2.78669633
O   -2.29629852  -2.70021178  -2.46098204
H   -2.86091444  -3.45494234  -2.62778281
H   -1.43398241  -2.97136489  -2.77581337
O    0.40123370  -3.19160313  -2.89363220
H    0.93242863  -2.74848607  -3.55522956
H    0.65931094  -4.11129789  -2.95519133
O    1.95343932   2.90222158   2.15858593
H    2.67901563   3.48976433   2.36968872
H    1.96888376   2.24290672   2.85234182
O    3.72263943  -1.12286635  -2.17799711
H    4.53312684  -1.62416811  -2.08833910
H    3.35663613  -1.40621840  -3.01584259
O   -1.28387352   1.36279254   0.72180411
H   -1.15383133   2.14543860   1.25732817
H   -2.15963542   1.05500096   0.95533630
O   -0.74783991   3.38361543   2.48532178
H    0.20274828   3.45371326   2.39757085
H   -1.06147091   4.28606300   2.42653557
O   -2.90554892  -0.01518117  -2.94021356
H   -2.90230914  -0.97194373  -2.96896680
H   -3.64115535   0.23916883  -3.49736804
O    1.24772904  -1.40947075  -1.00309904
H    2.17832173  -1.34167695  -1.21671809
H    0.92713204  -2.12543832  -1.55158773
O   -1.57310228  -1.34035741  -0.19930464
H   -2.32250868  -1.24363443   0.38828924
H   -1.90090676  -1.87867949  -0.91971107
O    1.33678446   0.99116367  -4.04677333
H    1.18825458   1.61658800  -4.75600893
H    2.06384470   1.36289385  -3.54734171
O    2.14146132  -1.64337250  -4.39944996
H    2.41182498  -1.85019584  -5.29407806
H    1.81389401  -0.74534772  -4.44927964
O   -2.84782360  -0.35858798   4.13271533
H   -2.26056020   0.34819443   4.40069328
H   -3.44558770  -0.46736252   4.87236256
O    1.55563916   1.34847939  -0.05809338
H    2.18844205   1.54671989  -0.74837814
H    1.78071344   1.94813368   0.65323506
Ca  -0.00033372  -0.00878770  -0.13680440
