61
Energy:  -2130.07778667
O   -2.95628187  -0.53699535   1.57833339
H   -2.85198227  -0.41105218   2.52146209
H   -3.88369692  -0.74512005   1.46511995
O    1.50906142   2.29453181   3.49092090
H    1.59232433   3.03254758   2.88707336
H    2.27672811   2.36128669   4.05877959
O    0.93229229   0.15345023   1.87705028
H    1.24161148   0.84162704   2.46608862
H    0.61677667  -0.53729884   2.45975729
O   -1.13761519   2.49277368   4.31284370
H   -1.22376364   2.98115961   5.13155579
H   -0.19341209   2.39405722   4.19050230
O    3.46046767   1.19727075  -1.98344965
H    4.36253456   1.42469551  -2.20880526
H    3.01809288   1.10564399  -2.82733408
O   -0.25470489  -1.63536356   3.48058203
H   -0.03605270  -2.34206217   4.08803584
H   -0.99202545  -1.18462619   3.89219600
O   -0.20753285   0.37845557  -2.06462918
H   -1.00713499  -0.00660414  -2.42323381
H    0.34939103   0.52973487  -2.82829286
O   -2.19179624  -3.54979102  -3.64534321
H   -3.00314616  -4.04992661  -3.73370358
H   -1.74261090  -3.67139854  -4.48180958
O   -0.68806947  -3.79687656  -1.32817435
H   -1.20701050  -3.75106382  -2.13118945
H   -0.94345984  -4.62631075  -0.92438413
O    1.26837389   4.12788845   1.43834183
H    1.58726957   5.02629621   1.35231338
H    0.32168567   4.21862275   1.54688004
O    2.02567953  -0.79027227  -0.69875544
H    2.75996352  -0.32447279  -1.09886756
H    2.10430783  -1.68698679  -1.02425893
O   -1.30034848   1.34123536   0.50068098
H   -1.41019067   2.21754598   0.86979646
H   -2.05200488   0.84706773   0.82785503
O   -1.43081302   3.71933920   1.85531571
H   -1.46231222   3.38879314   2.75307901
H   -2.13764232   4.36333165   1.81175061
O   -2.43148973  -0.87232431  -2.91723650
H   -3.19293585  -0.49226492  -3.35539916
H   -2.40975234  -1.78059588  -3.21857035
O    1.98039252  -3.28503560  -1.80500896
H    1.08860970  -3.60784097  -1.67557966
H    2.53947066  -4.03148763  -1.58943334
O   -0.74473139  -1.45824774   0.12790648
H   -0.77886291  -2.28703968  -0.34976579
H   -1.52713403  -1.46663736   0.67927530
O    1.68541118   0.65650880  -4.01654705
H    1.82949351  -0.26953312  -4.21127376
H    1.60723132   1.07289644  -4.87488328
O    2.05449249  -2.01344741  -4.27530458
H    2.53243907  -2.51749141  -4.93389288
H    2.09086864  -2.55414841  -3.48628554
O   -2.36381869  -0.00232661   4.21984513
H   -1.98885211   0.87262717   4.32028313
H   -2.93764007  -0.10609412   4.97891902
O    1.45496197   2.00951630  -0.28400727
H    2.23509277   2.03997938  -0.83781210
H    1.48003237   2.82831346   0.21114375
Ca   0.36234105   0.26911619  -0.09683326
