61
Energy:  -2138.71909015
O   -3.00741993  -0.95397550   2.13867563
H   -2.79301926  -0.77360327   3.05395158
H   -3.92260590  -1.23383678   2.15722733
O    1.42679425   2.30442727   3.29398620
H    1.36505341   3.00749948   2.64737241
H    2.24849278   2.47370298   3.75484313
O    0.86096185   0.03141437   1.86864121
H    1.17294365   0.77512048   2.38419958
H    0.66994892  -0.64661298   2.51673442
O   -1.09170012   2.33912619   4.47352317
H   -1.10664464   2.85788086   5.27782541
H   -0.16765623   2.30691397   4.22585989
O    3.00776665   0.95007097  -2.13430719
H    3.92350006   1.22811226  -2.15320718
H    2.79108055   0.77528378  -3.05012836
O   -0.00833324  -1.75173252   3.66849430
H    0.31402156  -2.44792063   4.24089394
H   -0.71118811  -1.33636556   4.16819137
O    0.00362463   1.75791336  -3.65583130
H   -0.31646688   2.45573869  -4.22750698
H    0.70341141   1.33914933  -4.15699694
O   -1.37945405  -2.26810320  -3.37327646
H   -2.08036406  -2.31234107  -4.02366098
H   -0.57266282  -2.29916600  -3.88743097
O   -0.84412612  -3.94220191  -1.24756717
H   -1.19183990  -3.52390755  -2.03519449
H   -1.30013701  -4.78250233  -1.20086475
O    0.76151198   3.97587613   1.19408117
H    0.99301303   4.88923244   1.02550072
H   -0.16307308   4.00414303   1.44020166
O    1.63257682  -0.98620811  -0.79203771
H    2.29835454  -0.45740588  -1.23174223
H    1.77431450  -1.87347217  -1.12204493
O   -1.63310839   0.98042450   0.79555154
H   -1.77433235   1.86428652   1.13477945
H   -2.29729358   0.44690749   1.23195672
O   -1.80619223   3.41576172   2.03281235
H   -1.69328561   3.13197499   2.93997774
H   -2.56922048   3.99327169   2.05521715
O   -0.86094206  -0.03662317  -1.86527894
H   -0.67096418   0.64949738  -2.50510615
H   -1.16473387  -0.77701307  -2.39041243
O    1.77731636  -3.45543608  -1.95811017
H    0.94355651  -3.83663244  -1.68285452
H    2.42454973  -4.13658878  -1.77548537
O   -0.92187836  -1.79220727   0.44886307
H   -0.94569821  -2.63137451  -0.01098777
H   -1.60394091  -1.86495554   1.11649336
O    2.10269765   0.24960427  -4.64495234
H    1.80896856  -0.66133823  -4.65673469
H    2.55017946   0.36832582  -5.48274531
O    1.16706146  -2.36472101  -4.44238446
H    1.38016475  -2.95289673  -5.16686231
H    1.51938528  -2.80159734  -3.66698853
O   -2.11133197  -0.24441104   4.64995546
H   -1.80142003   0.66109204   4.66578592
H   -2.56855506  -0.35618449   5.48343348
O    0.92246320   1.78505292  -0.44377712
H    1.60877702   1.85720955  -1.10710103
H    0.92832764   2.63272004   0.00081022
Ca  -0.00033267  -0.00355470   0.00212438
