61
Energy:  -2131.39673201
O   -3.42032236  -0.70350899   2.02882587
H   -3.14988466  -0.32041736   2.86329343
H   -4.36359114  -0.54625056   1.98704510
O    0.27221430   0.06118415   3.92652998
H    0.63379428  -0.28333253   4.74310823
H   -0.64630661   0.24044760   4.12756676
O    0.48422060  -1.13649942   1.47190777
H    0.48037358  -0.77436900   2.35795439
H    0.45777075  -2.08471160   1.60007141
O   -2.39089257   0.77213648   4.11594861
H   -2.35144350   1.60571876   3.64710301
H   -2.84232095   0.97828754   4.93445091
O    3.23283402   2.02126114  -1.81962151
H    3.94410656   2.65305054  -1.71395516
H    3.67425840   1.17897377  -1.92883852
O    0.03698866  -3.76566917   1.66983200
H   -0.91626886  -3.85079755   1.65294682
H    0.34796996  -4.61283437   1.98894577
O   -0.59070229   0.53968031  -2.13503286
H   -1.16290257   0.04034291  -2.71768271
H   -0.01903182   1.03201491  -2.72412653
O   -2.68100445  -3.27534709   1.24046102
H   -3.38191969  -3.92546638   1.28836290
H   -3.04064579  -2.50221592   1.67538417
O    0.70967607  -2.58299392  -3.69785357
H    1.31493725  -2.01723726  -4.17723876
H    0.91475842  -3.46683318  -4.00281461
O    1.08241867   2.23273840   2.41686090
H    0.86286415   3.06834532   2.82891519
H    0.93160943   1.58072607   3.10123532
O    3.87258496  -0.62212230  -2.22748752
H    4.71472119  -1.07400616  -2.17420153
H    3.59783696  -0.73312257  -3.13766570
O   -1.51593882   0.77408966   0.71298586
H   -2.25596899   0.28472754   1.07230731
H   -1.54794583   1.61999610   1.15980764
O   -0.05242020   4.55893863   3.45023913
H    0.00993717   4.75660855   4.38472830
H    0.18879288   5.37679969   3.01532376
O   -1.85321209  -1.57971749  -3.37656202
H   -1.07355764  -2.03085783  -3.70035700
H   -2.52626765  -1.76331147  -4.03194078
O    1.37866756  -1.36969338  -1.32664340
H    2.30942746  -1.18235767  -1.44839392
H    1.15289267  -1.94778950  -2.05538370
O   -1.42912804  -1.76533358  -0.66508492
H   -1.79352797  -1.93237536  -1.53430387
H   -1.87265793  -2.39278988  -0.09428577
O    1.31221708   1.67312901  -3.76357329
H    1.14381503   2.42150787  -4.33611297
H    2.01115499   1.96947707  -3.18056774
O    2.49445907  -0.69313528  -4.63998409
H    2.85178155  -0.65243679  -5.52705575
H    2.07000764   0.15537248  -4.51306909
O   -2.09172598   2.94979948   2.43257693
H   -2.81692918   3.53560152   2.21544068
H   -1.40620134   3.52942956   2.76471665
O    1.29741630   1.25252113  -0.05037435
H    1.35671902   1.69763781   0.79495764
H    2.00979361   1.62642210  -0.56897678
Ca  -0.04659793  -0.27052892  -0.30653449
