61
Energy:  -2134.17713901
O   -0.92182801  -1.74715390  -0.19959665
H   -1.17773807  -2.24109264   0.57935548
H   -1.10538150  -2.33834936  -0.92968424
O    0.87781540   1.27626672   3.82256518
H   -0.01269961   1.40443349   4.14934973
H    1.40941857   1.16716259   4.61106136
O    2.38829849   1.02072297   6.07078350
H    3.13947941   0.44310279   6.20611271
H    2.29309055   1.48892581   6.90021306
O   -1.81968117   1.79681982   4.22083169
H   -1.83494080   2.49925618   3.57076849
H   -2.18707783   2.19301536   5.01094601
O    3.19798115   1.24748691  -1.81701125
H    4.09706354   1.52238145  -1.99677694
H    2.75598002   1.30344848  -2.66420376
O    0.70174460  -0.60795128   1.87555168
H    0.88495261  -0.02062498   2.60884186
H    0.27537016  -1.36575223   2.27576962
O   -0.41494771   0.58851906  -1.89861561
H   -1.26164599   0.37910685  -2.29292564
H    0.13491406   0.85178498  -2.63656882
O   -1.57201854  -2.17114833  -4.70650611
H   -1.95694456  -2.48613346  -5.52433750
H   -0.68926476  -1.89141560  -4.94884309
O   -1.07399935  -3.48072620  -2.33791971
H   -1.36637272  -3.09402231  -3.16327404
H   -1.52543383  -4.32367612  -2.29462780
O    1.27897624   3.46516849   2.23913702
H    1.89076848   4.13759167   2.53878545
H    1.28969804   2.80496987   2.93214112
O    1.79329720  -0.93532489  -0.88751675
H    2.52518475  -0.39719341  -1.18915720
H    1.81986032  -1.71176217  -1.44668702
O   -1.44721189   0.96094972   0.83167340
H   -1.51810171   1.88322002   1.07789280
H   -2.07499809   0.51238388   1.39815819
O   -1.46912203   3.45131119   2.00100096
H   -1.90848365   4.27398209   1.78558090
H   -0.54490059   3.68687702   2.08196589
O   -2.67834222  -0.27040624  -3.02980855
H   -3.55888023   0.01875896  -3.26911619
H   -2.44044890  -0.90208092  -3.70850267
O    1.61173014  -2.99982410  -2.67691560
H    0.72631483  -3.34467067  -2.56136288
H    2.17414024  -3.77430695  -2.66676439
O   -1.23973537  -2.50134594   2.42248419
H   -1.35479331  -3.28033819   2.96669424
H   -1.91633134  -1.89542377   2.72465643
O    1.37787218   1.07279118  -3.90892059
H    1.33223787   0.23378397  -4.36741406
H    1.27647815   1.72891149  -4.59845467
O    1.11251581  -1.47305131  -4.93980609
H    1.61670906  -1.74462441  -5.70679309
H    1.41236156  -2.05132980  -4.23843717
O   -2.88880252  -0.30636220   2.78965738
H   -2.60876363   0.34778189   3.42989606
H   -3.83620101  -0.37018912   2.91046337
O    1.32357721   1.69543981   0.16611745
H    2.06836905   1.84029822  -0.41743461
H    1.39652133   2.38649623   0.82441224
Ca   0.16575927  -0.00196814  -0.02164701
