61
Energy:  -2130.29398967
O   -2.90427784  -0.41070912   1.44665347
H   -2.82086259  -0.35098524   2.39833976
H   -3.83300506  -0.58832605   1.29782526
O    0.89551105   1.63828093   5.00692243
H    1.49668946   1.68201118   5.75049760
H    0.84888861   0.70704655   4.79044904
O    1.13107109   0.40675373   1.65705514
H    1.49255305   1.21678951   2.01678376
H    0.91162648  -0.12014751   2.42546323
O   -1.62100674   2.51871423   4.53703756
H   -1.96284214   3.04812527   5.25752653
H   -0.72693051   2.30214496   4.80153197
O    3.25739810   1.22465861  -2.54597001
H    4.12540266   1.47857724  -2.85953861
H    2.75549549   1.05200524  -3.34253541
O    0.28440692  -0.86074216   3.93857079
H    0.47364578  -1.69587251   4.36632983
H   -0.65545303  -0.73280066   4.06712471
O   -0.33348491   0.46910392  -2.18895613
H   -1.18417878   0.11455145  -2.44749882
H    0.15063816   0.55435253  -3.01029003
O   -1.44590502  -3.04101031  -3.92496832
H   -1.86822346  -3.59949886  -4.57763173
H   -0.61674954  -2.78476787  -4.32879110
O   -0.62293642  -3.63561841  -1.36808949
H   -1.01836896  -3.51428605  -2.23130638
H   -0.97710368  -4.46862994  -1.05681922
O    1.77703763   3.08258783   1.94181073
H    0.91697618   3.45104591   2.14371367
H    2.37915091   3.54525770   2.52458689
O    2.00518526  -0.66244860  -0.98237009
H    2.67518971  -0.17619428  -1.46287256
H    2.07503773  -1.55796499  -1.31313114
O   -1.21391342   1.50225589   0.43407004
H   -1.19857520   2.31666269   0.93680073
H   -1.99502621   1.04376152   0.74371108
O   -0.93215025   3.63350486   2.12832451
H   -1.23909504   3.33109238   2.98305454
H   -1.32193715   4.50183271   2.02681218
O   -2.61090339  -0.79401541  -2.80433106
H   -3.45866181  -0.55949275  -3.18187131
H   -2.35306651  -1.58998409  -3.26928896
O    1.96136842  -3.13432628  -2.14769463
H    1.12996748  -3.49494429  -1.83954049
H    2.59886779  -3.83013269  -1.98744529
O   -0.67608316  -1.30495305   0.09104482
H   -0.71407849  -2.14184805  -0.37198321
H   -1.50809881  -1.25295211   0.56144646
O    1.30947864   0.46150036  -4.37794092
H    1.28246005  -0.47097530  -4.59239602
H    1.14450186   0.90410181  -5.21047829
O    1.12804784  -2.28229436  -4.65421847
H    1.57552118  -2.71869560  -5.37916910
H    1.54585861  -2.63364674  -3.86795038
O   -2.36728124  -0.10223930   4.12634558
H   -2.22561716   0.82670504   4.30862438
H   -2.96646814  -0.39304954   4.81383107
O    1.48038385   2.13718427  -0.61616009
H    1.75996567   2.71680589   0.09243333
H    2.17893414   2.20022541  -1.26753184
Ca   0.39585482   0.42169839  -0.27136543
