61
Energy:  -2131.44323178
O   -2.91315611   3.13873106   1.57960925
H   -3.41037320   2.48017868   2.06470282
H   -3.57791058   3.73287088   1.23128294
O    2.74662407   1.56827789   2.58371811
H    2.50747741   2.48613728   2.45497470
H    3.53008078   1.59914759   3.13278504
O    0.40306628   0.38927340   2.04279458
H   -0.18354181   0.54398931   2.78319028
H    1.25950837   0.68788671   2.34868489
O   -1.27362929   1.15140102   4.06891713
H   -1.10211934   2.08966557   3.98844463
H   -1.04884051   0.94325854   4.97576804
O    3.28335769   1.23180035  -1.66888661
H    4.15748137   1.59620366  -1.80799042
H    3.02917814   0.88472264  -2.52396653
O   -3.41673383  -0.91368906   0.92683211
H   -4.22164672  -1.33468059   0.62498245
H   -3.67757223  -0.43225712   1.71195533
O   -0.09409481  -0.00096886  -2.01750121
H   -0.80909038  -0.50155067  -2.41047836
H    0.56624995   0.05683532  -2.70803385
O   -0.35579643  -3.82184884  -3.48317501
H   -0.54427414  -4.49526015  -4.13679969
H    0.51443880  -3.49827581  -3.71603330
O   -0.08274449  -4.06034430  -0.75623786
H   -0.27965790  -4.08838284  -1.69254486
H   -0.40087096  -4.89774507  -0.41891408
O    1.35388448   3.86054775   1.77603773
H    0.60302749   3.91988183   2.36673655
H    1.66944714   4.76084607   1.69783932
O    1.98531531  -0.70242412  -0.18082558
H    2.70036794  -0.17093796  -0.53075992
H    2.24508972  -1.60517216  -0.36465993
O   -1.72034286   1.08363646   0.18389757
H   -2.03968371   1.92348826   0.51390093
H   -2.46627951   0.49073510   0.27488293
O   -0.91105483   3.79166739   3.35281114
H   -1.12402248   4.53376304   3.91864741
H   -1.64118797   3.74309031   2.73573925
O   -1.98288933  -1.63990837  -2.97370706
H   -2.73406084  -1.57417599  -3.56332767
H   -1.53390047  -2.44043646  -3.24536055
O    2.53039100  -3.25729312  -0.98295627
H    1.69759517  -3.70182508  -0.82460760
H    3.18688156  -3.82827475  -0.58391748
O   -0.80293945  -1.62300728   0.28248526
H   -0.60718785  -2.50265988  -0.04019795
H   -1.71623165  -1.66887290   0.56537312
O    2.00321350  -0.03980592  -3.77472434
H    1.99095678   0.27537122  -4.67846379
H    2.13783011  -0.98435516  -3.85177589
O    2.21939043  -2.79418329  -3.69996947
H    2.87320048  -3.23582432  -4.24192654
H    2.47440037  -3.00012628  -2.80064235
O   -3.80023123   0.90848316   2.98179430
H   -2.99527165   0.90294196   3.49971439
H   -4.50303722   0.86370113   3.63009219
O    1.05552587   2.02683187  -0.24416379
H    1.85016516   2.07078868  -0.77599839
H    1.15021083   2.73921138   0.38811940
Ca   0.13759096   0.19925644   0.01534917
