61
Energy:  -2131.03244883
O   -3.79570280   0.26337285   1.63362928
H   -3.59739581   0.65771633   2.48298162
H   -4.65509914   0.61468386   1.40071221
O    1.34429801  -0.15027281   3.70730867
H    1.96822106  -0.61329181   4.26638405
H    0.53342052  -0.13301195   4.21565069
O    0.32818263  -1.13738553   1.38245603
H    0.71830672  -0.87151377   2.21513079
H   -0.03922376  -2.00416574   1.55547761
O   -1.04002727  -0.04060735   4.95239806
H   -1.75137922   0.52276989   4.64774032
H   -1.33720055  -0.36357429   5.80305207
O    3.49931799   1.80024956  -1.63079871
H    3.84740725   0.92516595  -1.80195470
H    4.27518419   2.34848905  -1.51376476
O   -0.95576361  -3.45824860   1.71295932
H   -1.89425314  -3.30406005   1.60481526
H   -0.89854321  -4.33751170   2.08692999
O   -0.37464464   0.87037816  -2.14467205
H   -1.00523850   0.49497527  -2.75920919
H    0.26761221   1.31243105  -2.69994426
O   -3.41570690  -2.40393638   0.93722191
H   -4.22373521  -2.91575498   0.90029202
H   -3.67752592  -1.56990795   1.32719527
O    0.51452513  -2.30471752  -3.83377287
H    1.20305363  -1.80974082  -4.27779811
H    0.59968345  -3.19448867  -4.17624508
O    1.61103701   2.32843954   2.60540306
H    2.29477728   2.86518733   3.00619340
H    1.59834978   1.52650138   3.12786462
O    3.87276547  -0.85592630  -2.21404181
H    4.65288582  -1.40913488  -2.17398744
H    3.60461733  -0.88531510  -3.13244517
O   -1.39190454   1.09430584   0.63734268
H   -1.25099016   1.89632016   1.14048083
H   -2.27063384   0.80680993   0.88515866
O   -1.01690654   3.15840678   2.39411416
H   -0.09593622   3.01826251   2.61412576
H   -1.10364863   4.10865723   2.31840584
O   -1.89535668  -0.96657112  -3.53601547
H   -1.17861059  -1.50702359  -3.86830755
H   -2.56925831  -1.01852542  -4.21379803
O    1.28175203  -1.31164660  -1.39391396
H    2.23252169  -1.25173426  -1.48707730
H    0.99704321  -1.81440463  -2.15706997
O   -1.59786605  -1.37319564  -0.83730565
H   -1.93908869  -1.43872926  -1.72921613
H   -2.23652487  -1.84289814  -0.30090438
O    1.67418640   1.82839228  -3.69621328
H    1.62062111   2.62145871  -4.22951268
H    2.37797058   2.00590094  -3.07218576
O    2.56255934  -0.63579546  -4.65302206
H    2.94415677  -0.61392100  -5.53059642
H    2.24706103   0.25591211  -4.50622193
O   -2.89749150   1.67010761   3.83255630
H   -3.42826114   2.19027130   4.43583498
H   -2.28597651   2.29824071   3.44819960
O    1.47595254   1.21764832   0.10751961
H    2.21448605   1.49880508  -0.43262016
H    1.61074918   1.65831200   0.94649352
Ca  -0.03883593  -0.11157409  -0.34888593
