90
Energy:   -415.98865267
C   -0.79134868  -4.46704461  -3.38656079
H   -1.22649428  -3.86117194  -4.15367668
H   -0.36416783  -5.34481846  -3.82465746
H   -0.02754264  -3.91157130  -2.88362062
C   -1.87919705  -4.87517725  -2.37581173
N   -2.68914962  -5.17905054  -1.62326311
C    4.18043238   2.45215660   0.22069065
H    4.35007156   3.44684678   0.57665999
H    4.95538728   1.80774657   0.57996731
H    3.23322973   2.10307210   0.57543879
C    4.18418678   2.45043575  -1.31930381
N    4.18698211   2.44915450  -2.46589969
C   -0.18183108   0.53975586   1.48371661
H    0.76643485   1.02627351   1.38888794
H   -0.03476293  -0.51782801   1.55290060
H   -0.67557118   0.88967550   2.36614283
C   -1.04767822   0.85804216   0.25058946
N   -1.69234078   1.09502077  -0.66752975
C    0.54288816  -0.56526280  -2.96824511
H    0.14923207  -1.55659453  -2.88341321
H    1.11717955  -0.48529592  -3.86751915
H   -0.26347432   0.13751022  -2.99632934
C    1.44346914  -0.26504595  -1.75563482
N    2.11399262  -0.04152086  -0.85279133
C    2.80192346  -3.33874080   0.25137548
H    2.18549257  -2.54051633   0.60879796
H    3.81942354  -3.15411914   0.52616182
H    2.47726936  -4.26161068   0.68474598
C    2.69194267  -3.42506192  -1.28226493
N    2.61005698  -3.48933192  -2.42412992
C    0.59777495   3.95985954   3.79861904
H   -0.01423902   3.12929240   4.08233953
H    0.09054798   4.87271447   4.03167650
H    1.52368916   3.91974883   4.33338356
C    0.87602140   3.89915597   2.28518123
N    1.08318854   3.85395940   1.15835800
C   -3.60853636   1.83384699  -3.56743834
H   -2.60387301   1.59678542  -3.28574073
H   -3.64699776   2.83531293  -3.94225265
H   -3.93522278   1.15563550  -4.32783577
C   -4.52896231   1.70979342  -2.33901382
N   -5.21426127   1.61742990  -1.42439594
C    0.85772522   3.31089657  -2.13631709
H    1.50546021   4.09154137  -1.79582735
H    1.29711105   2.82693443  -2.98344154
H    0.71603077   2.59735735  -1.35166203
C   -0.50298443   3.91085947  -2.53645928
N   -1.51609461   4.35755912  -2.83438332
C    3.84150728  -0.57251190   2.45190547
H    3.75005865  -1.56410196   2.84342366
H    4.86241291  -0.25789124   2.51244163
H    3.52505982  -0.56201415   1.42982431
C    2.95923022   0.38671076   3.27231944
N    2.30233484   1.10089563   3.88315492
C   -2.96396287   4.28968590   0.22919909
H   -3.86846795   4.85630507   0.30478652
H   -3.07196120   3.54527237  -0.53177656
H   -2.15426527   4.94228398  -0.02260369
C   -2.67207357   3.60632228   1.57805594
N   -2.45474873   3.09752700   2.58234117
C   -4.61411412   0.57844176   1.82253391
H   -4.85400384   1.27497899   2.59854228
H   -5.50374977   0.07316214   1.50926085
H   -4.19009543   1.10239719   0.99152371
C   -3.59871011  -0.45093219   2.35257537
N   -2.84269566  -1.21734788   2.74721533
C    4.95462961  -0.89318535  -2.99505126
H    4.08324411  -0.28852878  -3.13639457
H    4.75868105  -1.88718664  -3.33923826
H    5.77045236  -0.47818356  -3.54922258
C    5.31661854  -0.93011242  -1.49865546
N    5.58613576  -0.95760630  -0.38452076
C   -3.77804095  -1.74344465  -1.10999645
H   -3.98130978  -2.77544228  -0.91362220
H   -4.69111581  -1.18680831  -1.07326251
H   -3.10071401  -1.36668323  -0.37231214
C   -3.14618390  -1.60153428  -2.50721444
N   -2.67573761  -1.49587556  -3.54750674
C   -0.27035276  -1.11559493   4.99434496
H    0.16542852  -1.18557191   5.96907470
H   -1.28496975  -1.45326231   5.03218931
H   -0.24518233  -0.09797676   4.66461962
C    0.52651277  -1.99350281   4.01155145
N    1.11981538  -2.64714514   3.27981701
C   -1.42151606  -4.27007407   1.59839496
H   -1.94528124  -5.06771650   1.11431153
H   -2.08381103  -3.76384595   2.26921353
H   -0.59375418  -4.66822786   2.14719631
C   -0.90583347  -3.27760972   0.53977039
N   -0.52188433  -2.53867490  -0.24842372
