90
Energy:   -416.54574506
C   -0.09452653  -2.92478184  -2.29107081
H    0.68735603  -3.27727010  -2.93084568
H   -0.59436801  -3.75940625  -1.84558267
H    0.32372722  -2.30813024  -1.52314913
C   -1.10242935  -2.10374286  -3.11667779
N   -1.85285882  -1.49244203  -3.73137972
C    3.42067877   2.66622232   0.51882845
H    3.55489488   3.57929922   1.06028649
H    4.23240451   2.00249458   0.73205580
H    2.49925688   2.20898001   0.81346425
C    3.38538830   2.96543361  -0.99141232
N    3.35911294   3.18821001  -2.11585522
C   -0.29760369  -0.61154268   1.23846736
H   -0.05563955   0.06796938   2.02879444
H    0.58934143  -1.11795616   0.91944882
H   -1.01054252  -1.32791725   1.58978602
C   -0.89629124   0.17037001   0.05449701
N   -1.34204133   0.75253955  -0.82702272
C    1.22228709   0.58651218  -3.55172143
H    1.46999258  -0.17217492  -4.26441776
H    1.66859118   1.51296250  -3.84735897
H    0.15933472   0.70080325  -3.50734933
C    1.75328987   0.18056411  -2.16433460
N    2.14864558  -0.12168267  -1.13136204
C    3.96120573  -3.22904970  -1.21317458
H    3.32792314  -2.74571512  -0.49886300
H    4.98311645  -2.99335378  -1.00093645
H    3.82013045  -4.28815952  -1.15587502
C    3.60491407  -2.73958881  -2.62918457
N    3.33963873  -2.37516293  -3.68346837
C    0.39260531   3.52180834   3.54792859
H    0.79771158   3.41775277   4.53279484
H    0.08659752   4.53540425   3.39339170
H    1.13799861   3.26029273   2.82619629
C   -0.82283370   2.58913548   3.39162972
N   -1.72778330   1.89471815   3.27525811
C   -3.66366604   1.31958583  -3.37085097
H   -2.61649994   1.24054624  -3.16567766
H   -3.89542877   2.32293056  -3.66151310
H   -3.92334680   0.64957029  -4.16365874
C   -4.46349259   0.95359824  -2.10675818
N   -5.05899981   0.68110384  -1.16558365
C   -0.19946793   3.78529660  -2.37827564
H    0.74996867   3.76342534  -2.87121779
H   -0.74400145   4.65154524  -2.69131819
H   -0.75307066   2.90529764  -2.63130709
C    0.01454878   3.83656517  -0.85408130
N    0.17389396   3.87473695   0.28075067
C    3.49338308  -1.22629080   2.06267001
H    3.63427620  -0.95873735   1.03628584
H    2.84583771  -2.07588244   2.12413655
H    4.43917482  -1.46619310   2.50178727
C    2.86134935  -0.04330880   2.81943085
N    2.39077151   0.83747507   3.38287369
C   -3.45466347   3.30422395   0.66679238
H   -2.62091653   2.63946012   0.75542242
H   -4.36330544   2.75794609   0.81118543
H   -3.37871397   4.07236476   1.40779877
C   -3.45618110   3.94167127  -0.73508444
N   -3.45731105   4.41627977  -1.77884545
C   -4.16946681  -0.19833540   2.00654576
H   -4.21464533   0.76633980   2.46726350
H   -5.16017301  -0.52993601   1.77537192
H   -3.59467875  -0.13699543   1.10612631
C   -3.50583112  -1.19777505   2.97210677
N   -3.01172418  -1.94190330   3.69101082
C    5.37097912   0.56807578  -3.18465251
H    6.16088812   0.12899627  -3.75749902
H    5.41080325   1.63308781  -3.27984972
H    4.42849393   0.21271110  -3.54567425
C    5.53325809   0.17865967  -1.70356486
N    5.65408216  -0.11127833  -0.60082778
C   -4.76683583  -2.62420118  -1.82434138
H   -5.57705446  -2.07126320  -1.39690071
H   -5.09563548  -3.61512628  -2.05855780
H   -4.43532395  -2.13786568  -2.71791664
C   -3.60462815  -2.69378685  -0.81635767
N   -2.73931171  -2.74559654  -0.06586798
C   -0.32282050  -0.49246935   5.43915445
H   -0.50087041  -0.77004991   6.45706773
H   -1.25639970  -0.29715742   4.95419856
H    0.28495363   0.38769669   5.41056358
C    0.40235532  -1.64084723   4.71324240
N    0.94228168  -2.49586675   4.17276789
C   -0.88828159  -4.54911621   2.25189620
H   -1.35950000  -5.44503302   1.90521700
H   -1.59790557  -3.74829446   2.24772044
H   -0.52559077  -4.69909006   3.24731686
C    0.28924716  -4.19639955   1.32420174
N    1.16597084  -3.93378596   0.63349106
