90
Energy:   -416.94000564
C   -0.39298437  -4.35927296  -3.76923378
H   -0.89510746  -4.09078109  -4.67515027
H    0.30938478  -5.14135175  -3.96905731
H    0.12375241  -3.50627868  -3.38157034
C   -1.42490551  -4.84776673  -2.73573845
N   -2.19321771  -5.21147254  -1.96625419
C    4.48374082   2.64824665  -1.45100212
H    3.85605235   2.47479180  -2.30001377
H    5.19100677   1.85034833  -1.36137933
H    5.00482103   3.57440046  -1.57595656
C    3.61924122   2.71330004  -0.17820658
N    2.97558197   2.76173525   0.76944756
C    0.76733997   0.19829585   0.83995492
H    1.09319065   0.86958848   1.60682369
H    1.51333766   0.14155055   0.07499315
H    0.61181567  -0.77375031   1.25928479
C   -0.55148405   0.71282783   0.23368763
N   -1.53340849   1.09592028  -0.21770593
C   -1.31265881   2.20218893  -3.53067128
H   -1.95576703   1.88017906  -2.73844553
H   -1.42190785   1.54519720  -4.36812313
H   -1.57600499   3.19764517  -3.82155743
C    0.14919750   2.17850650  -3.04692001
N    1.23761597   2.16087386  -2.68674521
C    3.73928353  -3.86040872  -0.16503060
H    3.15885260  -3.03910871   0.20029992
H    4.76302394  -3.56211072  -0.25376038
H    3.66481326  -4.68123227   0.51731973
C    3.20842987  -4.29042140  -1.54520577
N    2.81318518  -4.61058538  -2.57280891
C    1.15227134   3.45327044   3.99349373
H    1.67267168   3.11076574   4.86342142
H    0.77946694   4.44114511   4.16675539
H    1.82205850   3.46605085   3.15915512
C   -0.02415142   2.50602419   3.69290424
N   -0.90005164   1.80075630   3.46910170
C   -4.91126980   1.38937774  -2.83909538
H   -4.14426469   0.74950040  -3.22271019
H   -4.61208926   2.41072763  -2.94970507
H   -5.81876307   1.22286729  -3.38097113
C   -5.13966861   1.07999248  -1.34788287
N   -5.30972190   0.84964109  -0.23760737
C    0.30673699   4.51380662  -0.34689441
H    1.27379796   4.93185555  -0.53378568
H   -0.35365698   4.77007237  -1.14883378
H    0.38597994   3.44906939  -0.27650780
C   -0.24868586   5.07572423   0.97498080
N   -0.66222342   5.49409743   1.95917697
C    4.38043812  -0.35035794   1.95681659
H    3.71174987  -0.96164495   1.38753249
H    5.19273450  -0.94787192   2.31465836
H    4.76098986   0.43464878   1.33726521
C    3.62603839   0.25959011   3.15282848
N    3.06435351   0.71372415   4.04331370
C   -3.49182129   3.61672857   1.20926794
H   -3.53455403   4.53440771   1.75784710
H   -2.67055874   3.02837389   1.56178132
H   -4.40414425   3.07523050   1.34835687
C   -3.29925881   3.92210052  -0.28781845
N   -3.15588729   4.14946382  -1.40246732
C   -3.59895762   0.01853098   2.59327337
H   -3.45192376   0.49940214   3.53775427
H   -4.60140293  -0.35080113   2.53330437
H   -3.43024095   0.72192741   1.80481460
C   -2.61062871  -1.15436897   2.45502843
N   -1.87477292  -2.02764630   2.35209879
C    1.87467838  -1.09538254  -3.20748372
H    1.93093209  -0.35529997  -3.97820643
H    0.91847491  -1.04146673  -2.73033898
H    2.00521180  -2.06713713  -3.63591473
C    2.98206470  -0.83954601  -2.16832868
N    3.80656415  -0.64906408  -1.39463051
C   -3.07775316  -1.93271149  -1.04598347
H   -3.25501612  -1.08698193  -0.41493709
H   -2.46018987  -2.63869816  -0.53110727
H   -4.01092240  -2.39187329  -1.29750820
C   -2.36838908  -1.47298621  -2.33325005
N   -1.84023528  -1.13069984  -3.29167854
C    0.58785146  -1.56699505   4.51363257
H   -0.21957023  -2.18049019   4.85509138
H    0.19508477  -0.70374061   4.01822851
H    1.18053149  -1.25957972   5.34976969
C    1.46221090  -2.36891145   3.53178450
N    2.11321126  -2.96597467   2.80075398
C   -0.24563775  -4.79861364   1.00239337
H    0.60776320  -5.06628866   1.58972385
H   -0.54873646  -5.63713970   0.41086628
H   -1.04755043  -4.51000621   1.64934074
C    0.11649385  -3.62188787   0.07731113
N    0.38611728  -2.74576204  -0.61145465
