90
Energy:   -415.76655457
C   -0.13186791  -2.31610938  -4.30317843
H   -0.54581999  -1.60406675  -3.62014171
H   -0.76810645  -2.40071837  -5.15929812
H    0.83984047  -1.99126177  -4.61165201
C   -0.01891196  -3.68668493  -3.61009575
N    0.06518887  -4.70714073  -3.09406418
C    3.85428118   3.03607947   0.93629626
H    4.70516561   3.63003813   1.19727323
H    4.04831129   2.01106400   1.17419267
H    3.00094771   3.37445810   1.48604254
C    3.57854718   3.16946701  -0.57293484
N    3.37325069   3.26878009  -1.69662600
C   -2.01062676   0.59465545   0.27649737
H   -1.40623732   1.42737038   0.57009476
H   -1.60377755  -0.30460868   0.68965212
H   -3.00839354   0.73335538   0.63722287
C   -2.03001623   0.49081213  -1.25987518
N   -2.04445258   0.41349606  -2.40377438
C    1.42495641   0.43429665  -1.84810715
H    1.01439322  -0.48975500  -2.19805941
H    2.38049616   0.59468199  -2.30211092
H    0.76749130   1.23764255  -2.10747964
C    1.58685613   0.37718762  -0.31770620
N    1.70739783   0.33466735   0.82174686
C    3.22654914  -3.16063142  -0.77502685
H    2.67987475  -2.51936677  -0.11561276
H    4.23570658  -3.24957303  -0.43065824
H    2.76910432  -4.12776017  -0.79249997
C    3.21929783  -2.56362022  -2.19457785
N    3.21389891  -2.11911824  -3.25149809
C    0.75843874   2.55495798   3.55286710
H    1.20465189   2.43117125   4.51747627
H    0.63800733   3.59799609   3.34679216
H    1.38922658   2.11493108   2.80897053
C   -0.61830884   1.86523175   3.53179979
N   -1.64335999   1.35169922   3.51611421
C   -5.70129040   1.62530972  -1.61741221
H   -4.96612118   0.91872149  -1.94169522
H   -5.48739280   2.58336729  -2.04317341
H   -6.67076999   1.30237784  -1.93478175
C   -5.67191122   1.72816253  -0.08113158
N   -5.65003709   1.80474112   1.06269918
C   -0.14692204   4.00429162  -2.19064628
H    0.78039257   3.90269645  -2.71473236
H   -0.55675396   4.97519173  -2.37582150
H   -0.83272622   3.25681493  -2.53101419
C    0.09533553   3.82894969  -0.67996217
N    0.27570730   3.69839966   0.44481082
C    4.61228930  -1.02676342   2.35122399
H    3.98846021  -1.13008112   1.48805373
H    4.75042738  -1.98438646   2.80814311
H    5.56236173  -0.63048764   2.05928740
C    3.94392600  -0.07014104   3.35609419
N    3.44629915   0.64210781   4.10426573
C   -3.11349111   4.08564679   1.89291674
H   -2.09718609   4.22200222   2.19858238
H   -3.48890185   3.17046138   2.30084016
H   -3.70537187   4.90348152   2.24749058
C   -3.18403407   4.02950902   0.35555788
N   -3.23655650   3.98771190  -0.78907566
C   -4.48175639  -0.85071343   2.88800959
H   -4.01700297   0.11184354   2.93688205
H   -4.86257248  -1.11232482   3.85311979
H   -5.28595592  -0.82309077   2.18274426
C   -3.44511539  -1.89930896   2.44368666
N   -2.67328905  -2.68003599   2.11286804
C    5.33589337   0.74902797  -3.37162712
H    4.83719566   1.68361459  -3.52245360
H    4.87893961  -0.00165462  -3.98201061
H    6.36706877   0.84766252  -3.63967117
C    5.22719515   0.34238290  -1.89026812
N    5.14626438   0.03961716  -0.78732902
C   -3.31550263  -3.11411984  -1.90970737
H   -2.45944584  -2.55084486  -2.21758437
H   -3.81578951  -3.50266447  -2.77205603
H   -3.00342589  -3.92364181  -1.28346350
C   -4.27670428  -2.20049282  -1.12677886
N   -4.99236260  -1.52025598  -0.54385300
C    0.34575675  -1.53246811   3.29278376
H   -0.39456106  -2.00422375   3.90456502
H   -0.12489843  -1.09331057   2.43807712
H    0.84234863  -0.77098884   3.85709300
C    1.37393338  -2.58151397   2.83023041
N    2.13945762  -3.36257629   2.48583841
C   -0.39375989  -4.79960375   0.47350934
H    0.51518442  -5.04717643   0.98088316
H   -0.56021142  -5.49697969  -0.32075748
H   -1.21053987  -4.84309405   1.16334857
C   -0.28684168  -3.37698809  -0.10643304
N   -0.20723621  -2.31778606  -0.53822650
