90
Energy:   -415.89523988
C   -0.25911719  -4.37430738  -2.97892163
H   -1.10312005  -4.75735698  -3.51355454
H    0.64219698  -4.72461748  -3.43697697
H   -0.27819825  -3.30471224  -3.00130967
C   -0.31414026  -4.85823595  -1.51796796
N   -0.35510744  -5.21854276  -0.43022156
C    4.62302915   1.89201535   0.65138878
H    4.89900004   2.52706330   1.46714263
H    5.45741722   1.77589206  -0.00831647
H    4.33025929   0.93429777   1.02816716
C    3.44630994   2.52355024  -0.11548512
N    2.57018900   2.99375667  -0.68645759
C   -0.81360579   1.17131352  -0.34266703
H    0.12452878   1.63063689  -0.11066326
H   -1.44062382   1.18319392   0.52428530
H   -1.28923383   1.71172470  -1.13426845
C   -0.57683181  -0.28465837  -0.78502878
N   -0.40054281  -1.36869563  -1.11438721
C   -1.09325857  -1.31536712  -5.10046334
H   -1.60211539  -1.13023568  -6.02333455
H   -1.70748000  -1.92416797  -4.47038981
H   -0.17138849  -1.82181831  -5.29683502
C   -0.80366871   0.02331363  -4.39642387
N   -0.58805589   1.02002229  -3.87223449
C    2.58284059  -3.06355123  -0.14513756
H    1.72834541  -2.50637096   0.17779947
H    2.72855836  -3.90138993   0.50424039
H    2.42539363  -3.41041998  -1.14503336
C    3.82955836  -2.16037957  -0.10544173
N    4.75779640  -1.48792721  -0.07588638
C    1.33059220   3.84870001   2.51908696
H    2.06590520   3.08320565   2.65411791
H    1.47861033   4.61799031   3.24790941
H    1.42455578   4.26437647   1.53761714
C   -0.07598416   3.24497223   2.68836701
N   -1.12324419   2.79546946   2.81440370
C   -4.13002454   0.60358561  -3.08440126
H   -3.89642919  -0.34380945  -3.52346388
H   -3.38129670   1.31755793  -3.35743833
H   -5.08426963   0.93474650  -3.43745630
C   -4.17043608   0.46291550  -1.55137197
N   -4.20052431   0.35818021  -0.40996197
C    0.00592121   4.17891275  -2.67955744
H    0.63161890   3.31276946  -2.62300327
H    0.49464183   4.93480139  -3.25807589
H   -0.92224828   3.91869670  -3.14397976
C   -0.26213836   4.71211459  -1.25989555
N   -0.46172088   5.10910758  -0.20289274
C    4.95320572  -1.06798653   3.51431734
H    4.33686338  -1.47936249   2.74244162
H    4.88826656  -1.68229238   4.38799366
H    5.96851884  -1.03154612   3.17859356
C    4.47244901   0.35578412   3.85099244
N    4.11450379   1.41584608   4.10166236
C   -3.59451683   3.84326354   0.66116032
H   -4.57752677   4.10482501   0.99308988
H   -2.89297731   4.56823938   1.01774330
H   -3.33450225   2.87781909   1.04222269
C   -3.56363640   3.81290551  -0.87823072
N   -3.54064452   3.79030258  -2.02437733
C   -4.00875123   0.76209552   3.06139273
H   -3.58270855   1.70845235   3.32177044
H   -4.58292941   0.39086849   3.88444133
H   -4.64333209   0.87934132   2.20789426
C   -2.88222276  -0.23440957   2.73046793
N   -2.04347111  -0.97635290   2.48407937
C    2.59061707   0.14141240  -2.49097414
H    3.64026569   0.34910529  -2.48969847
H    2.24492996   0.04477927  -1.48297535
H    2.06909075   0.94258768  -2.97162740
C    2.32804633  -1.17152645  -3.25179486
N    2.13255047  -2.14906911  -3.81826046
C   -3.22109110  -3.06435714   0.00820627
H   -3.47587927  -4.05673585   0.31669886
H   -3.89168999  -2.36601166   0.46373872
H   -2.21814680  -2.84384070   0.30882948
C   -3.33271576  -2.95854775  -1.52409406
N   -3.41582539  -2.87976785  -2.66496131
C    0.80572523   0.10617209   4.06803527
H    0.90725495  -0.85098417   4.53541498
H   -0.22727536   0.38418123   4.04523651
H    1.35896549   0.83463931   4.62315671
C    1.35009553   0.03518787   2.62920859
N    1.75540397  -0.01766310   1.55793673
C   -0.13221265  -3.71030326   2.52304222
H   -0.19777822  -4.75103853   2.28331020
H   -0.26437845  -3.13039455   1.63358329
H   -0.89509319  -3.45833285   3.22974108
C    1.25035289  -3.40970600   3.13111608
N    2.27973578  -3.18589768   3.58385470
