90
Energy:   -421.03842195
C   -0.70896823  -4.24057739  -3.76135405
H   -1.23477254  -3.48819267  -4.31121517
H   -0.38736069  -5.01163532  -4.42988778
H    0.14339074  -3.80360496  -3.28444907
C   -1.64183897  -4.84261666  -2.69416105
N   -2.33640363  -5.29086226  -1.89958734
C    3.96576719   2.88743673   0.13345100
H    4.08553241   3.82562967   0.63380136
H    4.82985853   2.27969654   0.30344254
H    3.09864050   2.38875832   0.51333288
C    3.79776316   3.12955634  -1.37808886
N    3.67267652   3.30982539  -2.50349899
C    0.07406583   0.26742930   1.38479712
H    0.73583940   1.10074514   1.49678206
H    0.62607649  -0.58294036   1.04266444
H   -0.37914791   0.04267049   2.32765442
C   -1.02058909   0.61545932   0.35902633
N   -1.83560943   0.87458350  -0.40470665
C    0.26023874  -0.35020097  -3.13297168
H    0.03402737  -1.39035576  -3.02431344
H    0.68077131  -0.17591231  -4.10130784
H   -0.63680641   0.22304087  -3.02525506
C    1.27163773   0.07095999  -2.05070761
N    2.02467025   0.38453347  -1.24491281
C    3.15386213  -2.96262898  -0.37717361
H    2.49641190  -2.26844059   0.10320318
H    4.16885769  -2.69173676  -0.17394837
H    2.96622979  -3.94794298  -0.00454843
C    2.90931398  -2.93350799  -1.89735392
N    2.72723678  -2.91182609  -3.02919726
C    0.54154209   3.67822132   3.85355107
H    1.02643064   3.61540892   4.80530622
H    0.21193227   4.68243300   3.68677166
H    1.22898904   3.39597303   3.08371233
C   -0.67135508   2.72953496   3.83176504
N   -1.57441216   2.02319484   3.81554436
C   -4.20969132   1.68631614  -2.88890895
H   -3.15189339   1.57117839  -2.77618351
H   -4.42965458   2.69097321  -3.18417058
H   -4.56446354   1.00883648  -3.63727857
C   -4.90494137   1.38113699  -1.54909813
N   -5.42258663   1.15391724  -0.55154806
C    0.05542149   3.47486068  -2.19497192
H   -0.21984118   4.42980629  -2.59146850
H   -0.74290579   2.77992761  -2.35194540
H    0.93655526   3.12363298  -2.69008954
C    0.33241500   3.60614257  -0.68578682
N    0.53864925   3.70388791   0.43787009
C    4.04720456  -0.33796516   2.00921474
H    3.61065795  -0.22893921   1.03842095
H    4.06618327  -1.37361435   2.27748635
H    5.04605720   0.04547175   1.99622843
C    3.21058760   0.44381850   3.03901393
N    2.58768824   1.02589197   3.80574623
C   -3.22675882   3.73349939   1.09332887
H   -3.22886116   4.58550860   1.74061248
H   -2.39284758   3.10675697   1.33141514
H   -4.13519080   3.18358155   1.22463314
C   -3.11647869   4.20075506  -0.36992450
N   -3.03437012   4.54864814  -1.45938315
C   -4.15614168   0.21780004   2.50131376
H   -4.15347478   0.82943175   3.37926577
H   -5.14225167  -0.16259778   2.33462936
H   -3.85221028   0.80253991   1.65834041
C   -3.17815108  -0.95659431   2.69087194
N   -2.44999262  -1.83098428   2.83200661
C    4.73459584   0.06620376  -3.50755034
H    5.52208240   0.49461012  -4.09170195
H    3.88438953   0.71564541  -3.52409907
H    4.46464135  -0.88524161  -3.91593174
C    5.21339893  -0.11572189  -2.05522439
N    5.56988959  -0.25117380  -0.97390171
C   -3.68668284  -2.10252711  -0.78874804
H   -2.94348177  -1.76033590  -0.09921376
H   -3.79676781  -3.16291521  -0.69732893
H   -4.62035059  -1.62700026  -0.57186596
C   -3.25411235  -1.75326300  -2.22488779
N   -2.93204396  -1.49322000  -3.29415910
C    0.27198204  -1.45672535   4.91977361
H   -0.20817170  -2.19551887   5.52684585
H   -0.46376420  -0.79081535   4.51959810
H    0.96783760  -0.90326088   5.51505608
C    1.02045856  -2.14840390   3.76523315
N    1.57773336  -2.66339002   2.90562530
C   -0.84407993  -4.55108402   1.26091036
H    0.02011367  -4.78508204   1.84684083
H   -1.16768461  -5.42632312   0.73733073
H   -1.62860443  -4.20921857   1.90320969
C   -0.49299444  -3.44664048   0.24673905
N   -0.23159534  -2.62433206  -0.50835759
