90
Energy:   -416.23910216
C   -0.40991907  -4.67686821  -3.34552913
H   -0.57963096  -5.61148275  -3.83806717
H    0.61373913  -4.39020364  -3.46737497
H   -1.04334040  -3.92807938  -3.77330454
C   -0.72731076  -4.82200106  -1.84559614
N   -0.96362330  -4.93005906  -0.72882785
C    2.59769901   0.99853194   0.05330599
H    2.05569656   1.79290717   0.52245578
H    3.59208731   0.96413654   0.44688948
H    2.10539378   0.06829942   0.24618447
C    2.65515318   1.24356899  -1.46598854
N    2.69793041   1.42601021  -2.59717237
C   -1.08904014   1.04595564   0.26791431
H   -0.49351309   1.79693348   0.74360328
H   -0.65293276   0.08387283   0.43851944
H   -2.07896490   1.06583514   0.67356547
C   -1.14907101   1.32117787  -1.24610320
N   -1.19376672   1.52609333  -2.37335806
C    0.38663443  -0.96316453  -3.93701136
H    0.81622354  -1.73271561  -4.54376049
H    0.91408627  -0.04616205  -4.09763549
H   -0.64225711  -0.83371535  -4.20068576
C    0.49004577  -1.36169506  -2.45307083
N    0.56704022  -1.65841916  -1.34820965
C    2.74950801  -4.13639602  -0.23815006
H    2.94023341  -4.75280375   0.61541043
H    3.00213338  -4.67263047  -1.12895427
H    1.71295368  -3.87210969  -0.26278658
C    3.60327920  -2.85782541  -0.14908864
N    4.23895065  -1.90587147  -0.08277835
C    1.32700831   3.62562156   3.08117269
H    1.72174252   3.87108045   4.04493356
H    1.46831803   4.45234856   2.41675330
H    1.83586239   2.76702812   2.69544749
C   -0.17686639   3.31820755   3.20550089
N   -1.29656947   3.08932384   3.29806889
C   -4.45068589   1.40273231  -3.20121532
H   -3.94680254   0.55290641  -3.61206529
H   -3.91544358   2.29307956  -3.45752865
H   -5.44261447   1.45592396  -3.59889285
C   -4.51861451   1.26785538  -1.66863777
N   -4.56919046   1.16743338  -0.52756413
C    0.53936716   4.36004220  -2.94108438
H    1.12792203   3.59227264  -3.39828592
H    0.91107836   5.31860153  -3.23755341
H   -0.47970530   4.26097178  -3.25185032
C    0.62400454   4.22803467  -1.40908878
N    0.68702091   4.12974907  -0.26844841
C    4.22606899  -0.77845138   3.18942443
H    3.45145879  -1.03782028   2.49833326
H    4.39475590  -1.59562141   3.85925795
H    5.12672859  -0.56577527   2.65232085
C    3.80186828   0.46486754   3.99304861
N    3.48603157   1.39057498   4.59138335
C   -2.88740229   4.28572142   0.50294448
H   -3.25958730   3.31675546   0.76272028
H   -3.47215279   5.03567176   0.99339371
H   -1.86661782   4.37043572   0.81233360
C   -2.97929727   4.47901528  -1.02211054
N   -3.04771725   4.62293135  -2.15758332
C   -4.44853898   1.40111840   3.01926921
H   -3.85932960   2.29331809   3.06064798
H   -5.06972073   1.34328525   3.88857218
H   -5.06222982   1.41929782   2.14294041
C   -3.51926496   0.17408734   2.96982655
N   -2.82737822  -0.73949306   2.93301425
C    4.73051690  -1.14487718  -3.53380255
H    5.68929051  -1.42497447  -3.91746757
H    4.83161286  -0.83034378  -2.51608577
H    4.33362829  -0.34095233  -4.11782597
C    3.77631820  -2.35149242  -3.60580608
N    3.06587390  -3.24987232  -3.65941599
C   -3.02095910  -2.12678729  -0.22836428
H   -3.20149172  -3.14298618   0.05385543
H   -3.81977533  -1.51040454   0.12781549
H   -2.09753895  -1.79645708   0.19950985
C   -2.94046345  -2.02677932  -1.76300393
N   -2.88053078  -1.95231883  -2.90561291
C   -0.25645367   0.00573283   5.17154300
H    0.52118792   0.07201420   5.90351330
H   -0.80469724  -0.90190397   5.31480328
H   -0.91655346   0.84137735   5.27578119
C    0.36343603   0.01395231   3.76183764
N    0.82497209   0.02007208   2.71224792
C   -0.22220754  -3.16656709   2.09081109
H   -0.63479594  -4.12683294   1.86155033
H   -0.08615833  -2.61161105   1.18614900
H   -0.89002512  -2.63656718   2.73735487
C    1.13696272  -3.34602795   2.79227386
N    2.14892675  -3.47964472   3.31454478
