90
Energy:   -417.01988677
C   -1.85470453  -2.10019279  -3.18365439
H   -2.76566400  -2.42948610  -2.72910081
H   -1.90283300  -2.26580632  -4.23966334
H   -1.71753611  -1.05643441  -2.99220636
C   -0.67175275  -2.89013015  -2.59354927
N    0.20900862  -3.47827441  -2.15418918
C    0.72261178   2.67586131  -4.24830271
H    0.19277466   3.43955447  -3.71825972
H    0.07866160   1.83498371  -4.40046088
H    1.04282034   3.05595874  -5.19587409
C    1.95112927   2.23989227  -3.42837847
N    2.86581639   1.91529351  -2.81790760
C    0.76989266  -0.14098752  -0.97689465
H    0.20018694   0.14033717  -1.83781973
H    0.36881000  -1.04238386  -0.56274923
H    1.78908734  -0.30139139  -1.26046458
C    0.70022367   0.98231578   0.07426467
N    0.64835193   1.81866615   0.85690057
C    3.13591440  -1.78050419  -3.50392356
H    3.67417647  -2.42386755  -4.16819587
H    2.82145223  -2.33663489  -2.64559304
H    3.76996139  -0.97588976  -3.19492659
C    1.90125396  -1.21217169  -4.22794826
N    0.98199314  -0.78902231  -4.76701756
C    2.59138525  -3.57683158   0.34714444
H    1.96461001  -2.74240391   0.11095925
H    2.10419330  -4.48318341   0.05376847
H    3.51976354  -3.48517441  -0.17688973
C    2.85849500  -3.60523242   1.86353679
N    3.05737036  -3.62637813   2.99255982
C    0.88796212   3.74686966   3.60397723
H    0.46258633   3.88073466   2.63133352
H    1.95341382   3.82249377   3.54078882
H    0.51523657   4.50263277   4.26336852
C    0.50317680   2.35762557   4.14577156
N    0.21668663   1.32327019   4.54916207
C   -4.96448769   0.32264404  -2.46901260
H   -5.71718190  -0.41428207  -2.65687290
H   -3.99836381  -0.13518917  -2.51251545
H   -5.02753674   1.09342483  -3.20848598
C   -5.18092372   0.93285730  -1.07173122
N   -5.34207019   1.38718880  -0.03139173
C    2.84565939   4.18559097  -0.17003909
H    2.95172244   3.12152028  -0.20751423
H    2.84457892   4.50820792   0.85016492
H    3.66200861   4.64386466  -0.68816867
C    1.51962796   4.59315926  -0.83871594
N    0.53233729   4.89661237  -1.33657626
C    3.13721751  -0.10457306   2.85652313
H    2.46469732  -0.09748534   3.68872896
H    3.96112398  -0.75327315   3.06927987
H    2.62336453  -0.45452513   1.98566852
C    3.65889955   1.32254103   2.60593738
N    4.04731554   2.38509234   2.41936490
C   -2.32997736   3.46011512  -0.24603654
H   -2.16837330   4.47968739  -0.52756220
H   -1.65357605   3.19555605   0.53970441
H   -3.33710037   3.33950381   0.09463230
C   -2.08657397   2.54704902  -1.46204028
N   -1.90534909   1.86722981  -2.36741033
C   -2.51098298   0.45342918   2.21880635
H   -1.56015774   0.91086471   2.39652601
H   -2.71407939  -0.25875371   2.99110582
H   -3.27322099   1.20435379   2.21667610
C   -2.49010058  -0.26069640   0.85455250
N   -2.47455269  -0.79239537  -0.16119651
C    5.65009847   1.57193502  -0.74614320
H    5.31954398   2.04279057  -1.64832332
H    6.69484588   1.35302465  -0.82017163
H    5.48106101   2.22863863   0.08154381
C    4.86548076   0.26415769  -0.53238285
N    4.28129721  -0.70954198  -0.37322854
C   -5.87572588  -1.95311762   1.14528284
H   -5.24030187  -1.13653668   1.41792194
H   -5.82797285  -2.70973786   1.90036200
H   -6.88331870  -1.60530424   1.05210746
C   -5.40880884  -2.54000852  -0.19976272
N   -5.06116788  -2.97697547  -1.20121028
C   -0.05869747  -2.23287446   4.70085959
H   -0.99128967  -2.72621098   4.87916002
H   -0.02653942  -1.31917673   5.25675654
H    0.74534206  -2.86729326   5.01058900
C    0.08003897  -1.92479097   3.19838271
N    0.18333456  -1.69540881   2.07972039
C   -1.93041060  -4.12104212   0.55805142
H   -0.97731061  -3.64863078   0.44260402
H   -2.54134739  -3.90434474  -0.29324029
H   -1.79624526  -5.17937751   0.64066469
C   -2.61596887  -3.58963078   1.83053397
N   -3.12639816  -3.19397089   2.77795508
