90
Energy:   -417.46743186
C   -1.57929165  -2.53162720  -4.83642601
H   -2.19261688  -2.34333517  -5.69274280
H   -2.11982609  -2.27933303  -3.94813030
H   -1.31259387  -3.56750804  -4.80955096
C   -0.30243944  -1.67484639  -4.92113186
N    0.64823507  -1.03693414  -4.98419921
C    5.06274874   2.37999237   0.29997449
H    5.75763289   3.04180357   0.77330538
H    5.52694702   1.42896881   0.14194525
H    4.20351799   2.25788609   0.92584322
C    4.63118570   2.97198479  -1.05460969
N    4.30986740   3.41275005  -2.06315919
C   -1.32689131  -4.50590674   1.20223270
H   -1.27654263  -5.31359361   1.90223778
H   -1.48626208  -4.89580774   0.21862848
H   -2.13628192  -3.85690044   1.46410433
C   -0.00506121  -3.71635796   1.23350412
N    0.97910139  -3.12850300   1.25678711
C    1.88423815  -2.76896204  -2.09589292
H    2.45221659  -2.86981250  -2.99707540
H    2.48790461  -3.05479231  -1.25995814
H    1.57512928  -1.75103086  -1.98114575
C    0.64282885  -3.67749243  -2.16713528
N   -0.28145681  -4.35393459  -2.22017846
C    3.30422296   0.47125264  -3.60233199
H    2.36046145   0.46112496  -3.09823694
H    3.23398273  -0.10300406  -4.50244012
H    3.56955079   1.47965207  -3.84239623
C    4.38175565  -0.13901313  -2.68685452
N    5.18402771  -0.59338374  -2.00523994
C    2.37067439   3.48516459   4.05958485
H    1.32051263   3.28746554   4.00503625
H    2.62628879   4.25137192   3.35781088
H    2.62182927   3.80868102   5.04809759
C    3.15275474   2.20131356   3.72540399
N    3.73504911   1.24542810   3.47659114
C   -1.71152098   1.54191909  -4.07178108
H   -1.88120484   2.51039112  -3.64967979
H   -1.54145855   1.63624180  -5.12396029
H   -0.85473426   1.09692398  -3.61048406
C   -2.94520045   0.65274787  -3.82886231
N   -3.86373088  -0.00928052  -3.64799825
C   -0.93312285   0.00676989   0.97795469
H   -1.91019505   0.33378772   1.26655378
H   -0.24067250   0.81565944   1.08335538
H   -0.62976559  -0.80628181   1.60391028
C   -0.96008786  -0.45790176  -0.49002117
N   -0.98016454  -0.80387093  -1.58299593
C    4.07601011  -1.47200571   1.24203002
H    3.59589312  -2.38763876   1.51771819
H    4.45680394  -0.99093629   2.11865272
H    4.88266656  -1.68033940   0.57061246
C    3.05797713  -0.54671250   0.54990190
N    2.30000530   0.14221035   0.03458105
C   -4.86416354   1.39075803  -0.45506180
H   -4.89701887   1.00450994   0.54225115
H   -4.97649972   0.58721524  -1.15262805
H   -5.65825390   2.09488155  -0.59118544
C   -3.51229738   2.08975720  -0.69055712
N   -2.50577158   2.61019386  -0.86589409
C   -1.39406691   3.71126662   2.39246841
H   -0.62734234   2.96768560   2.45666257
H   -1.25673898   4.43324498   3.17014918
H   -1.34054990   4.19753309   1.44084877
C   -2.77225364   3.04249690   2.55041903
N   -3.79837630   2.54456744   2.66802045
C    0.83956957   2.80284070  -1.60548771
H    0.67713509   1.74533793  -1.59123586
H    1.60688466   3.03631703  -2.31373586
H   -0.06637472   3.29911704  -1.88454654
C    1.27287695   3.27455666  -0.20501324
N    1.59549400   3.62577063   0.83770367
C   -3.74360185  -3.00799871  -1.61269350
H   -4.23708464  -3.95456446  -1.53928923
H   -2.70799102  -3.16184702  -1.83346488
H   -4.19294408  -2.43113890  -2.39386148
C   -3.87714429  -2.25447060  -0.27629468
N   -3.97657271  -1.69343467   0.71871499
C    1.35919075  -1.13493346   4.12364294
H    1.68167737  -1.24779682   3.10965851
H    0.82793097  -2.01220377   4.42869856
H    2.21140848  -0.99624117   4.75561485
C    0.43310993   0.09050785   4.23440356
N   -0.25639934   1.00290460   4.31686988
C   -3.64748941  -0.48962324   4.04128572
H   -3.17029427   0.38623729   4.42865288
H   -4.42877746  -0.79371849   4.70612717
H   -4.06208602  -0.27377531   3.07877940
C   -2.61311189  -1.62319953   3.91218125
N   -1.84297081  -2.46719860   3.81605711
