90
Energy:   -416.25033686
C   -1.05878085  -3.90088255  -3.82494196
H   -1.73495294  -3.55715254  -4.57962148
H   -0.32438765  -4.54029115  -4.26847589
H   -0.57393828  -3.06173129  -3.37145332
C   -1.84038798  -4.68307829  -2.75309304
N   -2.42233002  -5.26545857  -1.95505280
C    4.74064419   2.90418066  -1.31275228
H    5.76556600   2.75152028  -1.57945489
H    4.41482557   2.10706814  -0.67765154
H    4.64162909   3.83557797  -0.79545725
C    3.87696440   2.93062780  -2.58749059
N    3.23391555   2.95031890  -3.53659121
C    0.08885863   0.25496727   1.42426691
H    0.68309729  -0.46297857   0.89859175
H   -0.31125481  -0.19300488   2.30977766
H    0.69694747   1.09358705   1.69230405
C   -1.06573202   0.72603285   0.52059791
N   -1.92537724   1.07676258  -0.15222473
C   -0.04971905  -0.05051943  -3.12427771
H   -0.90905993  -0.36801433  -2.57143918
H    0.24217121  -0.82310948  -3.80457454
H   -0.28650484   0.83708042  -3.67291063
C    1.10778221   0.24090826  -2.15121002
N    1.96959452   0.45788942  -1.42671690
C    2.95730537  -2.83815852  -0.54156104
H    2.44971765  -2.02215217  -0.07104162
H    4.01419102  -2.68099628  -0.48506463
H    2.70519414  -3.75044142  -0.04248295
C    2.52957792  -2.92578857  -2.01837186
N    2.21111540  -2.99103312  -3.11792465
C    0.56000912   3.61896957   3.91765131
H    0.72525352   3.97652260   4.91251326
H    0.33202350   4.44388526   3.27543970
H    1.44146153   3.12541863   3.56502090
C   -0.61832508   2.62744119   3.91762263
N   -1.49564845   1.88920325   3.91760127
C   -4.32046316   1.85104576  -2.57945053
H   -4.65252509   1.27617556  -3.41859254
H   -3.26465895   1.72721208  -2.45762365
H   -4.54154618   2.88473264  -2.74532041
C   -5.04391802   1.36891979  -1.30832205
N   -5.58256304   1.00995509  -0.36190911
C    0.45766918   3.75744531  -1.20499151
H    0.88847630   3.38151759  -2.10941605
H    0.31126715   4.81381705  -1.29184931
H   -0.48423953   3.27976885  -1.03314193
C    1.40398455   3.46561108  -0.02561880
N    2.10855936   3.24832723   0.85247780
C    3.97313288   0.21877917   1.65887566
H    3.39271789   0.57031789   0.83156728
H    4.10909210  -0.83924479   1.57521276
H    4.92761598   0.70236262   1.65601837
C    3.23907350   0.53959171   2.97410801
N    2.69253292   0.77845123   3.95335827
C   -3.83268417   3.46034004   1.74612769
H   -3.84328687   3.15943668   2.77289200
H   -3.89630664   2.59488678   1.12015491
H   -4.66724072   4.10176358   1.55379905
C   -2.52471552   4.21585263   1.44609645
N   -1.55087341   4.77836609   1.22270956
C   -4.08445252  -0.14091857   2.71928153
H   -3.92501889   0.58639347   3.48772039
H   -5.06499097  -0.55719160   2.82007947
H   -3.99213676   0.32641485   1.76117070
C   -3.03553923  -1.26119502   2.84719392
N   -2.25457560  -2.09529176   2.94243051
C    4.39659487  -0.41887753  -4.00505566
H    5.06353507   0.09315968  -4.66680247
H    3.46065963   0.09859691  -3.97122478
H    4.23991403  -1.41665699  -4.35830680
C    5.00925101  -0.46454826  -2.59290600
N    5.46540135  -0.49855219  -1.54149640
C   -3.86511014  -2.10745506  -0.67711534
H   -3.78603184  -3.17077581  -0.58769613
H   -4.85453568  -1.79968835  -0.41025240
H   -3.15799438  -1.64098897  -0.02343668
C   -3.57260818  -1.69138378  -2.13070651
N   -3.35482718  -1.38159981  -3.21297121
C    0.54933334  -1.75115174   4.82432999
H   -0.31461039  -2.34898455   5.02705480
H    0.24940230  -0.73946114   4.64706582
H    1.21149713  -1.78491653   5.66415029
C    1.27142339  -2.29820250   3.57897003
N    1.80905226  -2.70550666   2.65174293
C   -0.61289856  -4.57218885   1.05687278
H    0.37087532  -4.81845422   1.39810953
H   -1.02060118  -5.40055903   0.51605810
H   -1.23751461  -4.35288420   1.89750310
C   -0.54303020  -3.34114956   0.13423489
N   -0.49101004  -2.42458485  -0.55271096
