24
Energy:   -114.16810109
O   -0.99086725  -2.13989400   0.06964094
H   -1.78272805  -1.62392606  -0.08190248
H   -0.37371283  -1.83304200  -0.59458351
O   -3.08592365  -0.42930705  -0.43509273
H   -3.76875348  -0.50284618  -1.10185150
H   -2.60445725   0.36361553  -0.67109217
C    3.20107011  -1.39133565   0.30880892
H    4.03079655  -1.88841011  -0.14876206
H    2.84017013  -1.97905293   1.12687902
H    3.51343679  -0.43321671   0.66843964
C    2.07673395  -1.20902118  -0.72764158
N    1.23961458  -1.07327976  -1.49932609
C   -1.08633945   0.34631048   2.40021942
H   -1.24585015   0.66858979   3.40798554
H   -1.13899703  -0.72142051   2.35464736
H   -1.83926764   0.76787078   1.76753849
C    0.30268049   0.81247277   1.92596597
N    1.33686897   1.15955178   1.57286272
C    1.07973610   2.35944317  -1.75907732
H    1.11347346   3.32128071  -2.22665675
H    1.44427268   1.61888676  -2.43995055
H    1.69090528   2.36816694  -0.88084317
C   -0.37311000   2.02840748  -1.37016396
N   -1.45481995   1.78193636  -1.08060028
