24
Energy:   -114.25987678
O    0.00260809   0.39271366  -1.42906853
H   -0.03906584  -0.30779389  -0.77808137
H    0.91229958   0.68949966  -1.40434378
O    0.01406882  -1.43254754   0.62260922
H   -0.86550715  -1.80310036   0.69519414
H    0.04043978  -0.74489011   1.28793897
C    0.34171721   3.18662281   0.64583176
H   -0.48863880   3.15002553  -0.02801520
H    1.25278580   3.23554583   0.08685084
H    0.25812157   4.05301954   1.26814001
C    0.34586668   1.92191705   1.52452519
N    0.34895615   0.98028614   2.17875239
C   -3.89909583  -1.14002226  -1.82281191
H   -4.10679562  -0.10100390  -1.67380913
H   -4.81078040  -1.65955064  -2.03214564
H   -3.22601771  -1.25463035  -2.64666258
C   -3.25674733  -1.72275056  -0.55024909
N   -2.77848968  -2.15661826   0.39723178
C    3.45480862  -1.09540071   1.04203287
H    3.23976764  -2.03743608   0.58243857
H    2.89334885  -1.00427219   1.94832069
H    4.50016464  -1.03653585   1.26263391
C    3.06785732   0.04454973   0.08162582
N    2.77975449   0.89329465  -0.63344088
