24
Energy:   -119.78950960
O    1.78825363  -1.74154225   1.18082035
H    2.55810998  -2.25064199   1.43453376
H    2.09633530  -1.17824891   0.47087799
O    2.51570656  -0.08191715  -0.84425206
H    1.82526028  -0.33668865  -1.45630376
H    2.19812206   0.72972990  -0.44852362
C   -0.44254266   0.64288611   2.51798058
H   -1.47833198   0.63863266   2.24961033
H   -0.31621412   1.16351710   3.44420062
H   -0.09770900  -0.36434660   2.62508383
C    0.37009973   1.34935188   1.41701807
N    0.97514893   1.87534776   0.59730143
C   -1.43781545  -2.20332284  -0.17191844
H   -0.82063274  -2.43082839   0.67201693
H   -1.81082682  -3.11198597  -0.59629202
H   -2.25871098  -1.59243676   0.14088793
C   -0.60776227  -1.44730723  -1.22598300
N    0.01025006  -0.88441924  -2.01078198
C   -1.28152519   2.41095212  -2.07550108
H   -1.71544676   2.23500415  -3.03761051
H   -0.27659963   2.04364942  -2.06489789
H   -1.27949842   3.46139123  -1.87185268
C   -2.10626260   1.68097863  -0.99914291
N   -2.72031709   1.13748019  -0.19774532
