24
Energy:   -119.86281217
O   -0.08847108  -0.29075915  -2.62612471
H   -0.44262439   0.51642763  -2.25295345
H   -0.45980001  -0.98810854  -2.08570774
O    2.34877179  -0.15972853  -1.42965368
H    3.01692793  -0.24395785  -2.10987765
H    1.51773524  -0.21329548  -1.90160781
C    1.21309427   2.19402059   0.94309627
H    1.53039475   3.21564631   0.96548952
H    2.04161786   1.56883753   0.68310801
H    0.84382704   1.91401362   1.90753233
C    0.09543091   2.02643992  -0.10301335
N   -0.73672026   1.90166850  -0.88188952
C   -3.34776988  -0.04025386   0.75135190
H   -3.08298300   0.42776512  -0.17371368
H   -4.26744195   0.37290355   1.10968601
H   -3.46540270  -1.09262465   0.59780280
C   -2.23591944   0.20613856   1.78801934
N   -1.40809625   0.38958891   2.55986538
C    1.17990080  -1.84162311   1.41651208
H    0.84014073  -1.25926916   2.24737137
H    2.03772657  -1.37399504   0.98021167
H    1.44097975  -2.82350007   1.75215253
C    0.05851298  -1.93964365   0.36556902
N   -0.77641123  -2.01262439  -0.41690586
