24
Energy:   -111.83773413
O   -0.32949870   0.01103892  -1.63731252
H   -0.08058690  -0.67755555  -1.02077994
H   -1.27257343   0.11621273  -1.51169258
O    0.44689200  -1.80651781   0.33877137
H    0.19684406  -1.27144562   1.09203469
H    1.40362926  -1.77779128   0.33099675
C    0.21590760   2.50404833   1.07888349
H    0.04510272   2.42455282   0.02559989
H    1.24996895   2.71290015   1.25776090
H   -0.38225734   3.29617352   1.47842758
C   -0.16562674   1.17780143   1.76233117
N   -0.44969639   0.19035034   2.27118903
C   -3.05616862  -1.80865983   1.40108212
H   -2.34817874  -2.57200070   1.15417884
H   -4.03440810  -2.23720744   1.46660732
H   -2.79492157  -1.37065396   2.34172016
C   -3.04321164  -0.72363050   0.30831340
N   -3.03356458   0.08422315  -0.50530258
C    2.92672469   0.63368557  -2.27658408
H    2.15368762   1.27813071  -2.63990809
H    2.82836242  -0.33123140  -2.72842386
H    3.88184887   1.04770043  -2.52402819
C    2.80622327   0.49905330  -0.74722030
N    2.71650448   0.39881345   0.39146055
