24
Energy:   -114.45481688
O   -0.28187968  -0.41905692  -1.98229315
H   -0.21821712   0.41373469  -1.51470672
H   -0.21332870  -1.08452185  -1.29768447
O   -0.03480269  -2.05320606   0.20380998
H    0.70188376  -2.23280318   0.78799300
H   -0.77243990  -1.88892227   0.79129107
C    0.41477544   1.58939449   2.50429315
H    0.05142233   2.46206858   3.00560607
H    1.47216097   1.51002048   2.64759250
H   -0.06566159   0.72156983   2.90549101
C    0.10735719   1.69665435   0.99910568
N   -0.12152967   1.77651420  -0.12157482
C   -3.37147430   0.37115942  -0.67806894
H   -2.93052726   1.34168537  -0.77050949
H   -4.43319794   0.46888495  -0.58811486
H   -3.13905742  -0.21030063  -1.54570118
C   -2.81252564  -0.32945761   0.57425377
N   -2.39636296  -0.85109883   1.50666495
C    3.11221682   0.01397934  -1.49165576
H    2.48521062   0.86078858  -1.67787478
H    2.83053245  -0.78814298  -2.14138861
H    4.13277359   0.27890612  -1.67380066
C    2.95121282  -0.43163372  -0.02635486
N    2.83133802  -0.76341290   1.06462826
