24
Energy:   -115.74888624
O    0.50170022   0.59693523  -2.87223978
H   -0.16836672   1.07209487  -2.38084843
H    0.42412625   0.92903039  -3.76662613
O   -1.51231526   1.68504089  -1.35059739
H   -1.83075745   0.80219246  -1.16243502
H   -1.07020260   1.95716692  -0.54641106
C   -2.03836157  -0.38630570   2.85842951
H   -2.32831305  -0.43137007   3.88740838
H   -2.71007197  -0.97809285   2.27234743
H   -2.07176050   0.62907733   2.52260083
C   -0.60621529  -0.93110910   2.70433118
N    0.46008271  -1.33674000   2.58959797
C    2.70333528   0.92095347   0.66760596
H    2.83403780   0.15169191   1.39976283
H    3.42577464   1.69353994   0.82913184
H    2.83515536   0.50827178  -0.31076840
C    1.28572381   1.51012226   0.78949878
N    0.23024764   1.94878521   0.88025353
C    0.58124836  -2.35359742  -0.87968980
H    1.04965104  -2.50722022   0.06999391
H    1.21626757  -1.75387261  -1.49773498
H    0.41366520  -3.29906030  -1.35182846
C   -0.76566225  -1.63488977  -0.67747427
N   -1.76849843  -1.09977926  -0.52691562
