24
Energy:   -113.11644589
O   -0.59968726  -0.89387183  -1.80085606
H   -0.55158746   0.03773088  -1.58629923
H   -0.14018533  -1.32950597  -1.08300320
O    0.66902462  -1.75975273   0.59279324
H    1.42948795  -1.85405548   1.16640841
H   -0.06542676  -1.61617614   1.18961715
C    0.39824854   1.97222415   1.95215107
H    1.34201266   2.47543478   1.98359204
H    0.49596037   1.00292112   2.39464753
H   -0.32737825   2.54078653   2.49538369
C   -0.05633896   1.82474374   0.48818395
N   -0.39480002   1.71493787  -0.60180612
C   -3.50652962  -0.22422276  -0.19414491
H   -3.39410063   0.81423034  -0.42625495
H   -4.51340549  -0.41375923   0.11436118
H   -3.28299538  -0.80976363  -1.06136658
C   -2.54091524  -0.60328764   0.94405485
N   -1.82197144  -0.88551867   1.79149630
C    2.70442662   0.01856974  -1.75005755
H    2.07980762   0.79689145  -2.13601949
H    2.22410791  -0.92711904  -1.89100351
H    3.64110512   0.02346334  -2.26726983
C    2.94659454   0.25241052  -0.24730235
N    3.12689956   0.42651561   0.87156720
