24
Energy:   -112.01002571
O   -0.05327050  -0.55628864  -2.04790509
H   -0.04076704   0.22010897  -1.48818885
H   -0.00058081  -1.29243781  -1.43836425
O    0.11477024  -2.17187116   0.17335308
H    0.80174755  -2.43927819   0.78391635
H   -0.58059945  -1.82422281   0.73177359
C    0.00370279   1.74525285   2.47077852
H    0.24794168   2.73328760   2.80098281
H    0.72710851   1.05366542   2.84931529
H   -0.96766220   1.47852215   2.83161625
C    0.00905739   1.70248304   0.93138186
N    0.01304413   1.67063898  -0.21476892
C   -3.28270649   0.11983776  -0.75471918
H   -3.04336375   1.15978681  -0.83295727
H   -4.34342754   0.00285598  -0.67671154
H   -2.93026818  -0.39370429  -1.62475418
C   -2.60778221  -0.46942958   0.49781475
N   -2.10527040  -0.90816589   1.43038318
C    3.06637758   0.29502035  -1.30770396
H    2.53916202   1.20851672  -1.48789362
H    2.69507719  -0.46605984  -1.96176211
H    4.11021401   0.44375577  -1.48986423
C    2.85722433  -0.13841362   0.15516648
N    2.70150023  -0.46112491   1.24434001
