24
Energy:   -112.72074882
O   -0.92141860   0.69998658  -1.56582060
H   -1.79157339   0.59712425  -1.95115400
H   -1.01858236   1.41981518  -0.94241235
O    1.77447323   0.16051165  -1.05401037
H    1.63011337  -0.27990828  -0.21650075
H    0.89465405   0.34077924  -1.38515031
C    0.05531086  -2.73369187  -1.69349940
H    0.75164353  -2.70486279  -0.88159431
H    0.29570246  -1.96418739  -2.39704316
H    0.10902873  -3.68733839  -2.17575638
C   -1.37018798  -2.51015690  -1.15536819
N   -2.43153665  -2.34372495  -0.75470505
C   -1.75731120  -0.52778494   2.06344418
H   -1.82612192   0.10082764   2.92658466
H   -2.22246212  -1.46905088   2.26972589
H   -2.25284934  -0.05799267   1.23965035
C   -0.27559848  -0.75394791   1.70992230
N    0.82760400  -0.92233652   1.44670920
C    1.99602446   2.64585877   1.31001146
H    2.19046020   1.93738206   2.08792899
H    2.22478178   3.63098327   1.65943800
H    2.60505167   2.41849351   0.46013501
C    0.51039626   2.57492865   0.91066481
N   -0.59572147   2.52211795   0.61333308
