24
Energy:   -112.99763880
O    1.59255936  -0.89782832   0.97220519
H    1.49819647   0.02214659   0.72527671
H    0.71630565  -1.26697794   0.86202426
O   -1.07119500  -1.62195274   0.30696687
H   -0.88429341  -1.61908687  -0.63180436
H   -2.02634214  -1.65296696   0.36140863
C   -0.61979688   0.66624938   3.07567665
H    0.12811511   1.25637857   2.58856745
H   -0.28650263  -0.34837251   3.14168012
H   -0.79191088   1.04985184   4.05961008
C   -1.92821244   0.72510084   2.26562404
N   -2.90238730   0.76891842   1.66250305
C    2.62249873  -0.85012790  -2.27859021
H    3.02119011  -1.31189441  -1.39954695
H    2.83854768   0.19767351  -2.26031055
H    3.06743930  -1.29095951  -3.14611224
C    1.09734765  -1.05911245  -2.32148129
N   -0.03819665  -1.21471095  -2.35341565
C   -1.51151003   1.84429385  -1.38575394
H   -2.17667883   1.08954907  -1.02132156
H   -1.33546485   1.69060695  -2.42992229
H   -1.95012704   2.80873023  -1.23616561
C   -0.17625466   1.76368879  -0.62273631
N    0.81790366   1.70367466  -0.05463500
