24
Energy:   -112.80308405
O   -1.42560053  -0.21531391   1.21543755
H   -1.85364060   0.32948282   1.87589956
H   -0.78591876  -0.73040733   1.70708564
O   -0.89978712  -1.09051248  -1.36279375
H   -0.08097439  -0.60645981  -1.46989455
H   -1.21809278  -0.83506902  -0.49696351
C    1.57518447  -3.14995016  -0.25777826
H    2.11286731  -4.03387355   0.01512607
H    2.19335689  -2.53303791  -0.87598635
H    0.69124081  -3.42202028  -0.79584940
C    1.18383435  -2.37407473   1.01362348
N    0.89245639  -1.79640021   1.96023987
C    1.81683008   1.60360185   1.39474303
H    0.86226382   1.77579578   1.84646496
H    2.34408904   2.53086692   1.31062062
H    2.38122558   0.92609295   2.00082759
C    1.61952518   0.99630807  -0.00663666
N    1.47262271   0.54415024  -1.05002753
C   -1.91096940   1.99752772  -1.81292047
H   -1.03922245   1.60891512  -2.29659152
H   -2.36463168   2.73878668  -2.43711979
H   -2.60652188   1.20319678  -1.63929959
C   -1.51162249   2.63322446  -0.46829722
N   -1.21429055   3.10652957   0.53283591
