24
Energy:   -112.26303195
O   -0.24630058  -2.12235755  -1.53708739
H   -0.79323152  -1.34333602  -1.63820038
H   -0.70635373  -2.80383520  -2.02716000
O    0.78071805  -2.49772459   0.99331516
H    0.38652343  -2.43514980   0.12329973
H    1.60436842  -2.01576642   0.91882872
C    0.55648916   0.05106285   3.11700007
H    1.58936631  -0.20040046   2.99521676
H   -0.04109634  -0.82860914   2.99881436
H    0.40149581   0.45892831   4.09399644
C    0.15306842   1.09203258   2.05622972
N   -0.14729665   1.86708187   1.26643799
C   -2.83041695   2.39294510  -0.61280785
H   -3.19951820   2.11750816   0.35300732
H   -3.63361342   2.77962936  -1.20462691
H   -2.07392975   3.14198028  -0.50523220
C   -2.23195955   1.15477919  -1.30591241
N   -1.78638082   0.23290839  -1.82196026
C    1.74728629   0.84786814  -1.65553710
H    2.51231943   1.39480361  -2.16591545
H    1.00995327   1.52834566  -1.28379868
H    1.28778286   0.15975777  -2.33396161
C    2.36876136   0.07167411  -0.47957300
N    2.83147780  -0.50623763   0.39598573
