24
Energy:    -71.11361285
C   -1.06891976  -0.12541038   3.03137854
H   -1.09090122   0.93676813   2.90412358
H   -0.05333412  -0.46198640   3.04557264
H   -1.54325931  -0.38386372   3.95501426
C   -1.81627402  -0.79775712   1.86475457
N   -2.37271323  -1.29834983   0.99615000
C   -2.11683368   0.78685126  -1.79069429
H   -2.08056496   1.18144891  -0.79677405
H   -2.54733654  -0.19250760  -1.77013695
H   -2.71412524   1.42615297  -2.40667741
C   -0.68977534   0.70835356  -2.36422946
N    0.37273447   0.64990845  -2.79125246
C    2.73111859   1.75842452  -0.34776099
H    3.23021613   2.70374483  -0.30116335
H    2.65380561   1.44583272  -1.36815707
H    3.28915466   1.03278203   0.20625869
C    1.32090679   1.89215143   0.25640770
N    0.27094001   1.99171720   0.70623876
C    0.37635251  -2.37352895  -0.88199774
H   -0.52710789  -1.80152460  -0.84365051
H    0.14995413  -3.40840122  -0.73139144
H    0.83943880  -2.24519630  -1.83802123
C    1.33600817  -1.89204739   0.22201156
N    2.05051542  -1.53356249   1.04399667
