24
Energy:    -71.48444472
C    2.11225915   0.81924222  -2.05821627
H    2.74505385   0.38400681  -1.31320541
H    1.92476981   1.84368741  -1.81273939
H    2.59380784   0.76341541  -3.01209955
C    0.77827979   0.05156810  -2.11089943
N   -0.21492848  -0.52000017  -2.15012443
C   -0.57950241  -3.04400882  -0.01760757
H   -0.39340038  -3.97709955   0.47189004
H    0.34998609  -2.60692135  -0.31744880
H   -1.19057613  -3.20941868  -0.88023587
C   -1.30563075  -2.09206666   0.95097064
N   -1.84626631  -1.38330245   1.67212114
C   -2.56130074   1.65679802  -0.76103854
H   -2.64177066   1.94832679  -1.78740872
H   -3.33962703   2.12477763  -0.19526264
H   -2.65415545   0.59362899  -0.68391063
C   -1.19163237   2.09384314  -0.20913263
N   -0.17185201   2.41924309   0.20178640
C    1.02403242   0.66646725   2.68532706
H    1.23778562   0.32104789   3.67522363
H   -0.03261618   0.64037007   2.51885857
H    1.37803210   1.67000402   2.57353592
C    1.72767805  -0.24317104   1.66110003
N    2.25157420  -0.92043810   0.89851645
