24
Energy:    -71.78738236
C   -1.48437084  -2.22663059  -1.64088278
H   -1.87417597  -2.89607970  -2.37898171
H   -2.03555150  -2.33914216  -0.73069592
H   -0.45349540  -2.45208199  -1.46377666
C   -1.61374498  -0.77670771  -2.14346208
N   -1.71006992   0.30282579  -2.51765520
C   -1.69993331   1.81471720   0.62006615
H   -0.98928092   2.39380710   1.17190693
H   -2.67899537   2.22264154   0.76125505
H   -1.44970688   1.83970902  -0.41996329
C   -1.67376299   0.35818240   1.11948730
N   -1.65427800  -0.72627397   1.49132904
C    1.72654146   1.76654685  -1.55668666
H    1.56524827   2.30250020  -0.64474441
H    0.94806235   2.00280069  -2.25170716
H    2.67229576   2.04576797  -1.97199794
C    1.71793184   0.25327333  -1.27115355
N    1.71152158  -0.87342758  -1.05856118
C    1.47872326  -1.34780784   2.59905212
H    0.92819316  -1.86934476   1.84419052
H    0.99843325  -1.47974062   3.54605493
H    2.47448518  -1.73647833   2.64693273
C    1.52918096   0.15209766   2.25359948
N    1.56674901   1.26884548   1.99639430
