24
Energy:    -70.69471073
C   -1.84833748  -1.81084087   2.03236231
H   -2.30948581  -0.91232312   2.38578593
H   -0.85337525  -1.87752662   2.42030853
H   -2.41644728  -2.65616374   2.36035562
C   -1.79897695  -1.79142409   0.49327605
N   -1.76222579  -1.77696741  -0.65264363
C   -2.05461522   1.45308376  -1.37483536
H   -2.17135297   1.36727095  -0.31468978
H   -2.40481319   0.55840320  -1.84579946
H   -2.62153703   2.28831690  -1.72963722
C   -0.56663058   1.66215025  -1.71216741
N    0.54124162   1.81780976  -1.96332645
C    2.23399605   1.84151047   1.24306994
H    2.49732885   2.77473939   1.69544124
H    2.30879800   1.92719431   0.17913289
H    2.89992002   1.07790466   1.58709103
C    0.78889947   1.47405866   1.62813492
N   -0.28704062   1.20047409   1.91483331
C    1.50687265  -1.42292660  -1.90058066
H    2.29356384  -0.95935766  -2.45836286
H    0.60424006  -0.86149547  -2.02284512
H    1.35725760  -2.42077132  -2.25669908
C    1.88907609  -1.46201005  -0.40927485
N    2.17364392  -1.49110946   0.70107011
