24
Energy:    -71.79108846
C   -1.40912118   2.10334835  -1.54024641
H   -1.73536137   3.12233424  -1.52861518
H   -2.05322214   1.52983771  -2.17358565
H   -0.40701120   2.05390589  -1.91203953
C   -1.45484462   1.53335618  -0.11034491
N   -1.48888780   1.10897111   0.95428175
C    1.84782768  -1.09166896  -1.64872969
H    2.33890760  -1.99405565  -1.94779314
H    1.89818529  -0.99408825  -0.58437956
H    2.33085137  -0.25403394  -2.10693792
C    0.37336672  -1.13891831  -2.09069392
N   -0.72443648  -1.17409760  -2.41975637
C   -2.13084340  -2.35504668   0.70638029
H   -2.44605661  -3.34730810   0.95327725
H   -2.18762111  -2.21600374  -0.35302636
H   -2.76787785  -1.64681053   1.19370746
C   -0.67859859  -2.14638015   1.17440088
N    0.40266369  -1.99101843   1.52286347
C    1.64347602   1.36758883   2.49344721
H    0.66899508   0.94711047   2.62940688
H    1.73166470   2.25971058   3.07760526
H    2.38359569   0.66132842   2.80700454
C    1.85385565   1.70526256   1.00572517
N    2.01049285   1.95667600  -0.10195151
