24
Energy:    -74.38044008
C    2.44608239  -1.14878102  -0.53922923
H    2.71179661  -0.12832251  -0.72077965
H    3.17801077  -1.79200189  -0.98132294
H    2.40691310  -1.32492711   0.51544485
C    1.06659485  -1.43820305  -1.15959124
N    0.03950368  -1.65369091  -1.62147896
C    0.96328726   1.73503051   1.91197272
H    0.97299695   2.49634933   2.66377027
H    1.60658017   2.02119003   1.10625190
H    1.30738352   0.81352626   2.33307456
C   -0.47179230   1.55372167   1.38350913
N   -1.54027426   1.41872900   0.99004397
C   -1.24471320   1.46415046  -2.47558267
H   -1.21135084   1.10641537  -3.48345803
H   -1.84874831   2.34617197  -2.42998968
H   -1.66567824   0.71050057  -1.84336486
C    0.18250648   1.79426298  -2.00053561
N    1.24513640   2.04004675  -1.64684148
C   -2.16637765  -2.06297353   1.11658293
H   -2.05799392  -2.37312386   0.09827064
H   -2.69538927  -1.13356887   1.15197750
H   -2.71318476  -2.80550254   1.65930914
C   -0.77399194  -1.88554981   1.75013078
N    0.26270250  -1.75344979   2.22183596
