24
Energy:    -70.94928508
C   -1.01918502   0.17022926  -2.91617060
H   -0.90524653  -0.65047050  -3.59320095
H   -1.66409501   0.90476603  -3.35142447
H   -1.44531792  -0.18021686  -1.99938417
C    0.35833228   0.79862112  -2.63479942
N    1.38395653   1.26648743  -2.42530578
C   -1.91779239  -1.72402253   1.99653241
H   -1.92980553  -1.62236095   0.93144049
H   -2.80704192  -1.29227840   2.40608261
H   -1.87304476  -2.76128765   2.25533313
C   -0.68504881  -0.99884035   2.56754386
N    0.23278481  -0.45890926   2.99268785
C    0.39975503   2.50979514   0.74344112
H    0.27277633   3.45369328   1.23112225
H    0.92157935   2.65263517  -0.17970307
H    0.96395982   1.85532731   1.37450681
C   -0.98056309   1.88764788   0.46191905
N   -2.00827267   1.42443097   0.25231308
C    2.56420065  -1.01076039   0.17806286
H    3.25186977  -1.80980986   0.36117843
H    2.35730241  -0.50090640   1.09574533
H    2.99286796  -0.32473620  -0.52230435
C    1.25528715  -1.58189813  -0.39825923
N    0.28074156  -2.00713613  -0.82735723
