24
Energy:    -71.92436972
C   -1.17045756   2.37523378  -1.69591227
H   -2.04078182   1.83078070  -1.99758547
H   -0.30375840   1.94252450  -2.15032874
H   -1.26323700   3.39553066  -2.00459550
C   -1.03170687   2.31315219  -0.16343254
N   -0.92840067   2.26692963   0.97756827
C    2.19304184   0.84219913   1.52018667
H    2.78716901   0.06126609   1.94686766
H    1.16672280   0.69432165   1.78419534
H    2.52493971   1.78799031   1.89464886
C    2.33739048   0.81775961  -0.01283851
N    2.44486460   0.79956328  -1.15424543
C   -2.36182787  -0.72150668   1.83493660
H   -2.70812384  -0.57175088   0.83366117
H   -2.32600837   0.21877759   2.34432992
H   -3.03033918  -1.38027298   2.34876409
C   -0.95281480  -1.34221962   1.80335162
N    0.09625948  -1.80436861   1.77983517
C    1.18420034  -2.56607307  -1.67358699
H    1.04382378  -3.29583719  -2.44341744
H    1.31995537  -3.06014540  -0.73424563
H    2.04917672  -1.97629223  -1.89466056
C   -0.05406970  -1.65350531  -1.59937518
N   -0.97601804  -0.97405714  -1.54412111
