24
Energy:    -70.76660957
C    2.84542339  -1.20929500   0.53620543
H    3.80671845  -1.38053226   0.09860996
H    2.19272976  -2.02131833   0.29226237
H    2.94491232  -1.13863032   1.59922357
C    2.25807732   0.10416326  -0.01284100
N    1.82077146   1.08209264  -0.42163103
C   -0.55013050  -0.00249379  -2.91902288
H   -0.19779142   0.86117732  -2.39478098
H   -1.60272104   0.08798916  -3.08862561
H   -0.04305472  -0.08131845  -3.85793710
C   -0.27210146  -1.26231601  -2.07810207
N   -0.06509619  -2.20031093  -1.45199831
C   -0.38615325   2.99067576   1.07465134
H   -0.81087759   3.91519507   1.40597214
H    0.51551321   3.18630136   0.53277745
H   -0.16669359   2.37508423   1.92187245
C   -1.38845301   2.26449478   0.15832368
N   -2.13471074   1.72382004  -0.52392391
C   -1.82458313  -1.79208215   1.22890747
H   -2.01008729  -1.22059987   0.34352824
H   -2.73083609  -1.88441694   1.79022641
H   -1.47216899  -2.76535319   0.95789670
C   -0.76048002  -1.08091233   2.08536650
N    0.03179311  -0.55141407   2.72303918
