24
Energy:    -72.02327097
C   -2.31719086   0.76053818  -2.06275531
H   -2.82524858   1.14296529  -2.92329411
H   -2.92085758   0.91711021  -1.19328950
H   -2.13949989  -0.28694160  -2.18968484
C   -0.97287848   1.49237152  -1.89291956
N    0.02802320   2.03725471  -1.76646912
C    2.68584409  -0.33502921  -1.48668775
H    3.15540636  -0.53463805  -0.54617312
H    2.51502212   0.71675930  -1.58394972
H    3.32140609  -0.66805042  -2.28044899
C    1.34114478  -1.08223062  -1.55791853
N    0.33995503  -1.63855604  -1.61095308
C    0.49054114   2.11697208   2.19398985
H   -0.12129110   2.24383540   1.32538914
H    1.21417829   2.90390345   2.23856996
H   -0.12316594   2.14672814   3.06999059
C    1.21290635   0.75896194   2.11917716
N    1.75074008  -0.25213835   2.06347572
C   -0.89798314  -2.55611488   1.36899966
H    0.16879136  -2.48367961   1.40956402
H   -1.18517496  -3.10749309   0.49813686
H   -1.25482222  -3.05912935   2.24338025
C   -1.50641899  -1.14282776   1.30555422
N   -1.95942714  -0.09057125   1.25831620
