24
Energy:    -70.95286617
C   -1.39085720   1.86805156  -1.82767633
H   -0.57685213   2.49886627  -2.11813930
H   -2.31612464   2.33282520  -2.09742569
H   -1.30676689   0.92501435  -2.32618283
C   -1.35174965   1.64849157  -0.30390994
N   -1.32263231   1.48501917   0.83060340
C   -2.06659068  -1.71606718   1.97617275
H   -1.89274827  -2.67848272   2.41026413
H   -3.00057914  -1.32981140   2.32741500
H   -1.27720997  -1.05041811   2.25668748
C   -2.10866680  -1.84486511   0.44214515
N   -2.13999439  -1.94076102  -0.70000813
C    2.30210241   1.45098860   1.55610326
H    2.94808677   0.61824401   1.74087565
H    1.34203677   1.26043748   1.98838017
H    2.72199999   2.33222613   1.99428764
C    2.14980577   1.65544657   0.03735290
N    2.03641400   1.80767482  -1.09342578
C    1.13504212  -1.51615752  -1.70185312
H    0.15740652  -1.12741397  -1.89680767
H    1.22885640  -2.48489396  -2.14642897
H    1.86969102  -0.85957911  -2.11909988
C    1.34973926  -1.62638363  -0.18088128
N    1.50959104  -1.70845198   0.95155139
