24
Energy:    -72.20935185
C   -2.05104115  -1.65756796   2.04879146
H   -2.60142277  -0.77913192   2.31399023
H   -1.10318519  -1.64799020   2.54515468
H   -2.60062645  -2.52613811   2.34618175
C   -1.83211469  -1.68555231   0.52468908
N   -1.66911399  -1.70638794  -0.61007442
C   -1.91562886   1.49698740  -1.45286200
H   -2.39527556   2.35269391  -1.88018575
H   -2.08759336   1.48194776  -0.39687852
H   -2.31597631   0.60723223  -1.89213042
C   -0.40159209   1.56763799  -1.72544440
N    0.72567710   1.62024057  -1.92839438
C    2.21426934   1.81125879   1.34270177
H    2.45419490   2.77732325   1.73520064
H    2.41817947   1.79226649   0.29248320
H    2.80748622   1.06900389   1.83468803
C    0.72168621   1.51647452   1.58123445
N   -0.38960977   1.29699423   1.75883288
C    1.59599850  -1.57894623  -1.92696045
H    0.58495878  -1.30932638  -2.15057618
H    1.78960965  -2.56753625  -2.28765921
H    2.26234886  -0.88925805  -2.40151972
C    1.81343858  -1.53680200  -0.40297105
N    1.97533260  -1.50542370   0.73170833
