25
Energy:   -807.89524319
O   -0.81314574  -0.63938647  -2.06580484
H   -1.16787683  -1.31258984  -2.64648970
H   -0.41028915  -0.00191154  -2.65535054
O    0.71672145   1.43457742  -3.17686281
H    1.52072273   1.20150425  -3.64107255
H    0.34581387   2.15515381  -3.68620463
O    0.37344237  -2.56801414   1.63242986
H    0.40335820  -3.42504572   2.05767538
H   -0.25095658  -2.06321573   2.15352138
O    1.25436112  -0.86822071  -0.25820489
H    0.61342879  -0.99545042  -0.95766911
H    1.09106415  -1.58838196   0.35083839
O    1.38220112   0.59761229   1.90146631
H    2.03128531   0.86793538   2.55096381
H    0.63783003   0.29101305   2.41928910
O    0.74874465   1.67281139  -0.40501845
H    0.83808964   1.72617754  -1.35654427
H   -0.18442233   1.81180444  -0.24342590
O   -1.08500309  -0.37969198   2.63147188
H   -1.54710789  -0.03299180   1.86826157
H   -1.70503954  -0.27881780   3.35369833
O   -1.83765525   0.72752092   0.15842960
H   -2.71108703   1.10235036   0.04506444
H   -1.71584906   0.16678588  -0.60771093
H    1.20411412   0.46351914   0.39372795
