25
Energy:   -809.87429420
O   -0.52434900  -1.15570158  -0.42817800
H   -0.03634245  -1.95514764  -0.23077626
H   -1.19079559  -1.10596627   0.25710092
O    1.58683250   1.08945111  -0.83340254
H    2.30126259   1.61453807  -1.19410350
H    0.96939310   0.99390861  -1.55857291
O    1.41277482  -3.00415602   0.43447557
H    1.96972414  -3.37349981  -0.25081595
H    1.22293410  -3.74248252   1.01332471
O   -0.05903976   1.34849748   1.18305060
H   -0.75574310   0.80566172   1.55205689
H   -0.51091863   1.94789942   0.58911908
O   -2.11885247  -0.41554393   1.76289905
H   -2.95990227  -0.02045661   1.53317512
H   -2.28112495  -0.85797312   2.59605924
O   -0.51340167   0.63209487  -2.53490873
H   -0.71305513   0.33947752  -3.42414741
H   -0.69325519  -0.13061410  -1.98521828
O   -1.36114984   2.64197845  -0.79028274
H   -1.78052464   3.43856838  -1.11555359
H   -1.24806857   2.09556455  -1.56802069
O    1.87868176  -0.41569084   1.31525805
H    2.46896019  -0.41551744   2.06878522
H    1.81370406  -1.33635634   1.06151647
H    1.08020749   0.66303906   0.55011733
