25
Energy:   -814.15738832
O    2.86563331  -0.77507333  -0.09877884
H    3.78904061  -1.01164766  -0.01169617
H    2.42530002  -1.59922420  -0.30641742
O   -0.94783559  -2.11229284   0.88934443
H   -1.18117240  -2.62158224   1.66549525
H   -1.77178692  -1.71638762   0.60545166
O    1.27409690  -2.87624580  -0.61401864
H    1.26466094  -3.72896166  -1.04878118
H    0.42759964  -2.82373596  -0.17026537
O   -1.74172211   1.68951894   0.60984065
H   -2.17839614   2.16869878   1.31406670
H   -2.33250169   0.96290884   0.41172679
O    0.56015263   0.18106441   0.68469303
H   -0.15887462   0.81159049   0.72554081
H    0.14446286  -0.66727911   0.83879406
O    0.01020998   3.03062453  -1.09156032
H   -0.32194013   3.77741132  -1.58977477
H   -0.74740099   2.71443856  -0.59933690
O    2.29458109   1.75701620  -0.47676443
H    3.06831439   2.23057644  -0.78223020
H    1.55736083   2.31115576  -0.73302109
O   -3.19349337  -0.64694094   0.07488887
H   -4.02515084  -0.78787049   0.52734503
H   -3.40347007  -0.75567495  -0.85264471
H    1.92873907   0.39781473   0.04547029
