25
Energy:   -809.92935599
O   -0.44510968  -1.55621287  -1.35274022
H   -0.64927777  -1.97072830  -2.19102668
H    0.40336421  -1.13596808  -1.49316177
O    0.65695903   1.57755867   1.78582622
H    0.61110665   1.97089648   0.91438215
H    0.64150375   2.32263182   2.38654161
O    0.47824842   2.11502832  -0.92915149
H    1.06053668   1.41503523  -1.22441728
H    0.71011082   2.86633814  -1.47505004
O    2.20319213  -0.66008531   1.29541097
H    1.87225434   0.17260773   1.63206261
H    2.88774875  -0.91412273   1.91434479
O    1.93183708  -0.19686490  -1.39907291
H    2.21387273  -0.39313315  -0.50567126
H    2.71256739  -0.33988566  -1.93408420
O   -0.54842459  -0.99459183   1.20097335
H   -0.64875174  -0.09322434   1.50708274
H    0.38212598  -1.18572710   1.31833941
O   -1.97968249   0.94182754  -0.44713002
H   -1.18605132   1.40256663  -0.71934484
H   -2.65098019   1.62301503  -0.40744564
O   -2.71858833  -1.81980744  -0.04394776
H   -3.35970392  -1.15552942  -0.29680615
H   -3.22321854  -2.46326816   0.45358465
H   -1.26950667  -1.35864675  -0.05601350
