25
Energy:   -810.77380015
O    0.42087192  -2.20645740   2.53215179
H    0.31477460  -3.15587660   2.47233209
H    0.29800758  -2.00927993   3.46072986
O    1.44495237   1.12595816   0.65567404
H    1.97755184   1.68493281   0.08988522
H    2.04331771   0.43671631   0.94400795
O   -0.52033350   1.61713843  -0.94852559
H    0.09202841   2.15617557  -1.44920882
H   -1.08577915   1.21875871  -1.61018763
O   -3.09523962  -1.32766870  -0.33792437
H   -3.89583967  -0.96108616   0.03742700
H   -3.29663304  -2.25327355  -0.47550417
O    1.97420685   2.81911597  -1.55542292
H    2.08920052   3.75800886  -1.40883356
H    2.53661661   2.62253743  -2.30461181
O   -2.12372131   0.14108964  -2.51809985
H   -2.59090584  -0.43749168  -1.91542738
H   -2.60607760   0.06962651  -3.34178503
O    2.75195675  -1.07745993   1.46179152
H    2.08883383  -1.60707980   1.90451336
H    3.58481362  -1.47762560   1.71168892
O   -0.68242949  -0.40529675   0.71193808
H   -1.51328200  -0.76441698   0.40057233
H   -0.36186888  -1.05219174   1.34042803
H    0.06994005   0.80124870   0.15964385
