25
Energy:   -808.42277233
O   -1.13803922  -1.37593169   1.34044369
H   -1.57651123  -2.17416986   1.63504506
H   -0.41436887  -1.68648778   0.79630402
O    1.09716168   0.14393925  -2.12662410
H    1.61877245   0.33899659  -2.90515264
H    0.19743556   0.08776777  -2.44844626
O    1.21791856  -1.74777238  -0.13598199
H    1.53356119  -2.61093091  -0.40348700
H    1.17882652  -1.24398616  -0.94894147
O    0.16648836   0.74935015   2.53570339
H    0.08144798   1.00497900   3.45420972
H   -0.40884407  -0.01009689   2.44370002
O   -2.25007042   0.78011780  -0.04918900
H   -3.10376770   1.08612790   0.25706353
H   -2.10536977  -0.03969556   0.42325107
O   -1.54234234   0.06281054  -2.64352724
H   -1.98743297   0.34196971  -1.84340454
H   -2.22264562   0.08426115  -3.31654965
O    0.37696731   1.61792757   0.08415467
H    0.69826464   1.31875970  -0.76643245
H   -0.57603208   1.56261709   0.01369359
O    2.39767979   0.39532265   1.19492750
H    3.32511224   0.55156598   1.37294136
H    2.37302724  -0.47467986   0.79653105
H    0.99814830   1.01017173   1.27533748
