25
Energy:   -809.18443131
O    1.36007590   1.23576776  -0.26463370
H    2.04771527   0.60929281  -0.49027298
H    0.87157776   1.35937629  -1.07846559
O    1.42793837  -1.06851042  -3.56465967
H    1.91095363  -0.77268092  -4.33628977
H    1.11984856  -1.94480981  -3.79576981
O    0.78852490   0.75708728   2.24279831
H    0.11294298   0.45754216   2.85115152
H    1.47969313   1.10697382   2.80502401
O   -0.36078684   0.72934359  -2.38030123
H   -0.78655611   1.23754324  -3.07072538
H    0.18339467   0.09652944  -2.84896378
O   -1.30611256  -0.08944020   3.69826331
H   -1.57094827  -0.29337915   4.59520411
H   -2.08566462  -0.26638572   3.17174577
O    2.85013022  -0.81286059  -1.15352625
H    2.47578927  -1.01509146  -2.01096626
H    3.69887508  -1.25542243  -1.15178214
O   -0.98033666   0.29517654   0.35088469
H   -1.80307465   0.02385076   0.75796745
H   -1.15883548   0.27254647  -0.58925249
O   -3.27185819  -0.46021645   1.73998710
H   -3.64805571  -1.33650678   1.65738845
H   -4.02957516   0.12272211   1.78773097
H    0.44802079   0.77987366   0.80342734
