25
Energy:   -811.69263698
O   -1.68390047  -2.52373892   1.56349941
H   -1.31167560  -3.39931536   1.66860121
H   -2.54116761  -2.67366240   1.16494221
O    0.49545898   2.24122387  -2.18724961
H    0.61763342   1.58564280  -2.87392182
H    0.18398087   3.01879388  -2.65049697
O   -0.08136461  -0.47432128   0.56995125
H    0.30847813  -0.79147561  -0.24470672
H   -0.63041035  -1.19828743   0.87103867
O   -0.21007044   1.26237959   2.51985922
H   -0.30596806   2.07013965   3.02439781
H   -0.68628269   0.60478985   3.02683995
O   -1.54162029  -0.74422995   3.70060015
H   -1.92502616  -1.03886149   4.52668976
H   -1.69484636  -1.46803232   3.09325861
O    0.88638100   0.22566091  -4.06316638
H    0.17177967  -0.01389638  -4.65324187
H    1.64660864   0.32738265  -4.63582550
O    1.18478740   1.80603026   0.37125708
H    0.97431507   1.98606640  -0.54499629
H    2.01993566   2.25032034   0.51742672
O    1.08988849  -1.27918686  -1.72561682
H    1.02527799  -0.79947868  -2.55141183
H    1.67178867  -2.01397432  -1.91981110
H    0.29306912   0.85667425   1.15396713
