25
Energy:   -813.94862542
O    0.72427646  -0.79590859   1.22706154
H    0.21569509  -1.08829006   1.98342779
H    1.60129191  -0.63509673   1.57522141
O    3.41847155   0.10904189   1.16853800
H    4.16363748  -0.49102770   1.13893949
H    3.75769669   0.89168395   1.60285305
O   -2.69370963  -0.98622514   1.15273635
H   -3.61241951  -1.20617470   1.30709370
H   -2.24610307  -1.24643555   1.95782687
O   -0.97020279  -1.64200531   3.26343329
H   -1.08961907  -1.15989606   4.08168892
H   -0.94491149  -2.56152313   3.52815800
O   -1.82621125   1.25215769  -2.86425062
H   -2.53880587   1.87843592  -2.73690721
H   -2.04986050   0.79582417  -3.67540571
O   -0.91946470  -0.32895688  -0.76870250
H   -1.64608458  -0.54687866  -0.18495127
H   -1.32186940   0.17811475  -1.47381290
O    0.82338375   2.11574447  -2.58112090
H    1.10148684   2.80468454  -3.18465391
H   -0.09415068   1.95789313  -2.80348408
O    1.64527653   0.06832825  -1.04283773
H    1.52867422   0.80961548  -1.63708430
H    2.45134799   0.26713493  -0.56643815
H    0.46470484  -0.36858497  -0.25296121
