25
Energy:   -811.10542931
O   -1.74829137  -2.13885721   1.44880800
H   -2.60527960  -2.52711162   1.62505083
H   -1.68653603  -2.11699505   0.49385241
O    1.79623167   1.07570543  -1.77899797
H    1.03239456   0.89174051  -2.32575350
H    2.52378650   1.14173811  -2.39749252
O    0.52264777  -1.38087226   2.66981887
H    0.97577615  -2.00681225   3.23471324
H   -0.30540585  -1.80918879   2.45278429
O    0.57350896   1.14177668   1.96013358
H    0.34270822   1.76318774   1.26961844
H    0.37549486   1.60376318   2.77474437
O   -1.00692396   0.81954722  -2.23230320
H   -0.97030478   1.49125379  -1.55134713
H   -1.63310941   1.15961810  -2.87142402
O   -0.97085986  -1.75040840  -1.19819386
H   -1.12872851  -0.91352583  -1.63515713
H   -1.04578228  -2.40270319  -1.89470659
O    0.04533868   2.61238412  -0.28119914
H    0.02715502   3.56702140  -0.34879241
H    0.81373020   2.35047915  -0.78835997
O    1.13401900  -0.71448283   0.21383229
H    0.50707257  -1.23384967  -0.28958413
H    1.54926737  -0.14535378  -0.43415904
H    0.78208754  -0.33277578   1.63136316
