25
Energy:   -810.87937761
O    0.04115731  -2.59758619   0.05589119
H   -0.08521512  -3.54640104   0.05239291
H   -0.41339339  -2.29204222  -0.72913009
O    1.02249638   0.39929912  -1.98207689
H    1.53578046   0.38285931  -2.78985226
H    0.28015696  -0.17892603  -2.15763231
O    1.88310117  -0.34402967   0.50895488
H    1.99270344  -1.29314887   0.45071448
H    1.73528559  -0.06364606  -0.39424356
O    1.36547027   1.13765397   2.63682303
H    0.95426077   1.36889451   3.46968941
H    2.22805561   1.55109530   2.67210256
O   -2.28872570   0.69791650  -0.13109312
H   -1.65986851   1.41718351  -0.18962039
H   -3.13244777   1.12763358   0.00929255
O   -1.26291635  -1.16286856  -1.93733270
H   -1.78961641  -0.57100991  -1.40019003
H   -1.85459530  -1.44419301  -2.63518972
O    0.02047072   2.17402330  -0.12273967
H    0.40897539   1.78441152  -0.90600120
H    0.21196408   3.10873289  -0.19942166
O   -0.47806246  -0.43274440   1.60549075
H   -1.23431967  -0.02148365   1.18695583
H   -0.42244454  -1.29918206   1.20247180
H    0.87564783   0.18909704   1.55393406
