25
Energy:   -808.12295514
O    0.75940897  -2.95121612   0.04129697
H    1.03070307  -3.86913160   0.03338954
H    1.43730351  -2.50497515   0.54880050
O    0.88691261   0.66274516   0.55243700
H    0.90980990   0.54953300  -0.39776854
H    1.49448480   0.00328639   0.88740269
O   -1.39155881  -1.58678872  -0.86353773
H   -0.67977790  -2.15376578  -0.56665932
H   -2.03836301  -2.18747292  -1.23374667
O   -0.66298712   2.62870617   1.32811101
H   -0.87936663   2.98342492   0.46579647
H   -0.29084953   3.36988926   1.80601591
O   -1.58970375   0.18191647   1.21496348
H   -1.65285358  -0.51168901   0.55833925
H   -2.47769530   0.26490094   1.56255009
O    0.17948958   0.33691835  -2.08442600
H    0.58835988   0.08421769  -2.91219366
H   -0.40884677  -0.38878210  -1.87597684
O   -1.10350686   2.69917887  -1.33406243
H   -0.69215812   1.98559032  -1.82172566
H   -1.49587403   3.25503193  -2.00734337
O    2.55894964  -1.34994787   1.45711072
H    3.45838876  -1.31628787   1.13136830
H    2.64799090  -1.56203445   2.38626237
H   -0.43997241   1.17016393   1.07531491
