25
Energy:   -808.27591388
O   -2.70066769   0.87345679   1.70367163
H   -3.01378772   1.75003670   1.92682035
H   -3.16705718   0.29194243   2.30413290
O    0.47367096   2.34615289  -0.84830557
H    0.14119355   1.80861610  -1.56715522
H    0.66646270   3.19283374  -1.25103965
O    0.71424792  -1.05553352  -0.38040757
H    1.36902847  -1.67951458  -0.69368367
H    0.31513220  -0.70616551  -1.17720145
O    2.03056470  -0.80556674   1.84571115
H    2.48924579  -0.55734798   2.64835114
H    2.59115912  -1.46965464   1.44452165
O   -2.87951110   0.28968113  -1.02886115
H   -2.90980337   0.49089161  -0.09353845
H   -3.79674789   0.18451731  -1.28154493
O   -0.54368105   0.28464254  -2.40415943
H   -1.41682340   0.28288364  -2.01192072
H   -0.70111636   0.16572061  -3.34080426
O    0.03243870   0.81899985   1.30677644
H   -0.90132106   0.82584875   1.51719901
H    0.13809302   1.51777584   0.66119056
O    3.12240062  -2.61169018   0.03087788
H    3.95297830  -2.47092590  -0.42360863
H    3.07474488  -3.55952437   0.15566215
H    0.88315872  -0.32103568   0.94108512
