25
Energy:   -814.39432046
O   -0.73654941  -2.96078163   2.12798139
H   -0.93196276  -3.67855667   2.73034711
H   -0.61738628  -3.38591834   1.27869300
O    0.13578598   1.55974476   0.17408982
H    0.34376494   2.06793072  -0.60995331
H    0.07071911   2.21139617   0.87219339
O    0.01018039  -0.94176810  -0.57829757
H    0.21381797  -0.67417826  -1.47448910
H   -0.08375158  -1.89308347  -0.62736593
O   -0.11907472   3.14121572   2.36610652
H   -0.88198159   3.67113776   2.59716404
H    0.59559980   3.51039449   2.88493136
O   -0.30023605  -3.70382166  -0.52720993
H   -1.02425346  -4.09923862  -1.01267471
H    0.45332462  -4.25997170  -0.72488468
O   -0.40722669  -0.30145198   1.92256229
H   -0.54492221  -1.22976211   2.11100883
H   -0.52414916   0.13468014   2.76657044
O    0.59530087   0.16179833  -2.96641932
H    0.75769703  -0.00675375  -3.89456238
H    0.68100178   1.11088312  -2.87627908
O    0.74145017   2.84922739  -2.21553063
H    0.10769580   3.44948319  -2.60831585
H    1.58527756   3.28872254  -2.32056012
H   -0.08599452   0.09657030   0.49551712
