25
Energy:   -810.12797543
O   -1.61241080  -1.70258044  -1.23021188
H   -2.14765354  -0.94239661  -1.00246729
H   -2.24643402  -2.39004910  -1.43425415
O    2.06440879   0.10261972  -1.12192697
H    2.83480501  -0.13061962  -1.63992399
H    1.38086426   0.27046000  -1.77063982
O    0.42580967  -1.30901559   0.56775281
H    1.11247321  -0.95086275   0.00521252
H   -0.23659035  -1.63628551  -0.04081309
O    0.26921613  -1.12606254   3.18261023
H    0.04244975  -0.73544259   4.02654442
H    0.70657387  -1.94713643   3.40797155
O   -2.06745329   1.01139109  -0.63631931
H   -2.73212541   1.68011296  -0.80140682
H   -1.46398040   1.08517632  -1.37564877
O   -0.22794177   0.30931680  -2.64973374
H   -0.29727623   0.42360275  -3.59755403
H   -0.62388602  -0.54576282  -2.48151119
O   -0.58474858   0.82251343   1.65899470
H   -1.18542550   0.99064015   0.93294203
H    0.13833757   1.43382426   1.51871877
O    1.81764943   1.83694470   1.03969463
H    2.10045590   1.40528654   0.23351625
H    2.46146510   2.53152591   1.17858367
H    0.02849230  -0.51576848   1.79025654
