25
Energy:   -807.69197819
O   -0.95694725  -2.99736138  -0.22205628
H   -0.36386351  -3.66955140   0.11356865
H   -1.50831476  -3.45792640  -0.85459528
O    2.61924522   0.38427125  -1.88442399
H    2.99864414   0.13531113  -2.72722121
H    1.77986038  -0.07479988  -1.85411485
O   -1.94932154  -0.95413510   1.37952734
H   -2.60417180  -1.26845644   2.00290931
H   -1.68228981  -1.73652557   0.89704308
O    0.38263981   0.41383014   1.92278888
H    0.71293528   0.11207557   2.76900453
H   -0.43140531  -0.07332625   1.79534855
O   -2.15824062   0.92121897  -0.67021326
H   -3.01925882   1.13810760  -1.02775881
H   -2.34241585   0.31824663   0.05001982
O    0.15587580  -0.58725325  -1.13576866
H   -0.66564278  -0.11642020  -1.27596605
H   -0.11309679  -1.48010244  -0.91965313
O    0.06547109   2.29564718   0.12175069
H   -0.78453297   1.98114801  -0.18617009
H    0.23981008   3.07357409  -0.40802990
O    2.45729299   1.34567871   0.60273502
H    3.29300416   1.64234130   0.96302657
H    2.67366051   1.02529713  -0.27292050
H    0.97536955   1.33139789   0.85586003
