25
Energy:   -809.29022062
O   -2.25648351  -1.42216527   0.49846431
H   -1.48384546  -1.95260156   0.30378603
H   -2.96441449  -2.05811665   0.60157304
O    2.15094712   1.65377948  -0.03414273
H    2.87748372   2.24890002  -0.21909664
H    1.60022481   1.69717546  -0.81584190
O    0.35235849  -2.23615614  -0.05399941
H    0.79488630  -3.07891102   0.04682320
H    0.48946482  -2.00138275  -0.97177671
O   -0.68936842   1.51296352   3.03307038
H   -0.22111411   1.40591489   3.86102590
H   -1.39115596   2.13256184   3.23262995
O   -1.28453709   1.07809326   0.51762726
H   -0.90756343   1.24042316  -0.34711069
H   -1.83539050   0.30449053   0.39791432
O    0.60988574  -1.33851525  -2.68335139
H   -0.00952157  -1.74459548  -3.28970549
H    1.46283359  -1.44498041  -3.10451285
O    0.08439872   1.27759860  -1.86764141
H    0.23804988   0.40469983  -2.22912572
H   -0.21126584   1.79804856  -2.61459935
O    0.81358086  -0.04448913   1.55446451
H    0.74050938  -0.87379805   1.08208846
H    1.49739923   0.43729423   1.08915915
H   -0.38087974   0.83591704   1.67578177
