25
Energy:   -808.03913586
O    1.28602852   0.71490488  -1.75839141
H    0.36136281   0.49809586  -1.87763491
H    1.49312053   1.29443280  -2.49152997
O    1.67130552   0.64243303   0.95789033
H    1.68892672   0.87596200   0.02978173
H    2.20441668  -0.15043846   1.01602075
O    2.31305035  -1.70562470  -0.67448262
H    2.19588292  -0.98590984  -1.29457467
H    3.08443725  -2.17406324  -0.99348016
O   -2.53836461   1.17670007   0.52352899
H   -2.29604977   0.79074531  -0.31822768
H   -3.47746623   1.34605671   0.44844019
O   -0.25665536   2.24972539   1.72437707
H   -0.07378298   3.10826735   2.10607753
H   -1.14930770   2.32248224   1.38657524
O   -0.29078372  -2.26081187  -0.08207493
H   -0.49354097  -3.19300347  -0.00371575
H    0.64077416  -2.23538094  -0.30067279
O   -0.57572881  -0.33424243   1.84062521
H   -1.48836948  -0.07347818   1.71684773
H   -0.48061038  -1.13041771   1.31785446
O   -1.34151314  -0.19315367  -1.60615199
H   -1.82662613  -0.46372230  -2.38569663
H   -1.08980826  -1.01410542  -1.18316886
H    0.33086708   0.83047254   1.57527032
