25
Energy:   -809.11814852
O    0.86249187   0.22422117  -2.53681676
H    0.91050733  -0.47390360  -1.88371021
H    1.47422187  -0.04551210  -3.22184393
O    1.48470049   0.98896103   1.71939004
H    1.78715248   0.10451049   1.92554989
H    2.20120526   1.55884389   1.99882928
O   -2.25571335  -1.07462303  -0.14499860
H   -2.28024194  -0.50100531  -0.91089213
H   -3.02546978  -1.63550499  -0.24048841
O   -1.84263942   0.80990153  -2.11314603
H   -2.36559681   1.15085980  -2.83874570
H   -0.99879717   0.59019451  -2.50797630
O    0.54896302  -1.16391841  -0.17680570
H    1.00237391  -1.63707694   0.52088436
H   -0.35150227  -1.48642207  -0.13958336
O   -1.13660352   0.72386016   1.57030135
H   -1.66100681   0.07861777   1.09607008
H   -1.66423533   0.94457577   2.33784362
O    0.17441754   1.85968201  -0.38570497
H    0.71833534   1.50169918  -1.08729857
H   -0.69445816   1.94871309  -0.77731744
O    2.11933868  -1.68530738   2.11562803
H    2.99008644  -2.03797393   1.93217098
H    1.83619712  -2.14438356   2.90639459
H    0.21530408   1.15976868   0.92061386
