25
Energy:   -810.20786128
O    1.71836645   0.51297000  -0.14574128
H    1.99243004   0.55879367  -1.06172228
H    1.29175564   1.35376842   0.01946492
O   -0.14303181  -1.31149706  -0.14392572
H   -0.12574469  -1.33836404  -1.10059241
H   -1.07009103  -1.38849507   0.08160557
O   -0.16760421   2.26308915   0.74256847
H   -0.76707621   1.90704696   1.39838791
H   -0.36414972   3.19964691   0.72109121
O   -2.74930160  -1.24838993   0.81794462
H   -3.43847751  -0.96700458   0.21620489
H   -3.06489843  -2.07962839   1.17244866
O    2.40883223   0.53394236  -2.83428523
H    3.26333682   0.16031463  -3.04982193
H    2.36754087   1.34583973  -3.33960645
O    0.17509102  -1.13986990  -2.80849007
H   -0.02497026  -1.58320672  -3.63290489
H    0.93095510  -0.58821571  -3.00993234
O   -1.58681183   0.62715280   2.52959746
H   -2.12388745   0.85978608   3.28700315
H   -2.13288474   0.02516476   2.02398237
O    0.88914567  -0.50982673   2.12050367
H    1.55856553  -0.47324261   2.80370972
H    0.10374301  -0.15229086   2.53468070
H    0.85924648  -0.47232206   0.57069551
