7
Energy:    -96.62707968
C   -0.13323968   0.08726481  -1.15462539
H    0.68866100   0.62798926  -1.57533493
H   -1.04999268   0.57668119  -1.40944814
H   -0.14094248  -0.90948306  -1.54364138
C    0.01436328   0.03920381   0.37753110
N    0.12426039   0.00342021   1.51829125
Na   0.49689018  -0.42507620   3.78722748
