7
Energy:    -91.27934404
C    0.79986457  -0.65560367  -0.57194134
H    1.78729853  -0.24408200  -0.59483821
H    0.43553456  -0.76442626  -1.57210152
H    0.82345459  -1.61303184  -0.09478946
C   -0.13089298   0.28671845   0.21375543
N   -0.82388428   0.98832010   0.79874238
Na  -2.89137499   2.00210522   1.82117272
