7
Energy:    -90.66678088
C    0.78744415   0.01503412  -0.81340799
H    1.31509493  -0.90197665  -0.97333325
H    1.48246976   0.78565370  -0.55267065
H    0.26987603   0.28954485  -1.70876612
C   -0.22738646  -0.16936259   0.33014642
N   -0.98297397  -0.30665431   1.18157466
Na  -2.64452445   0.28776089   2.53645693
