7
Energy:    -95.72416034
C    0.86069573  -0.64165773   0.43901387
H    1.67758781   0.03834435   0.56224004
H    1.15120838  -1.43230735  -0.22081540
H    0.59128819  -1.05156590   1.38995759
C   -0.34539595   0.10755472  -0.15732796
N   -1.24338602   0.66537744  -0.60133156
Na  -2.69199814   2.31425447  -1.41173658
