7
Energy:    -91.01770938
C    0.92637883  -0.76609522   0.00797676
H    1.09764835  -1.10984093   1.00667883
H    1.80484902  -0.27540889  -0.35591353
H    0.69689826  -1.60009178  -0.62185457
C   -0.25418325   0.22275350   0.00080863
N   -1.13316539   0.95899631  -0.00452838
Na  -3.13842582   2.56968702  -0.03316775
