7
Energy:    -91.01680381
C    0.92912979   0.35618788   0.53961842
H    1.21468347   1.26465944   0.05172630
H    1.67771192  -0.38959312   0.37128960
H    0.83032864   0.53154192   1.59051726
C   -0.41705532  -0.13034449  -0.02842375
N   -1.41935132  -0.49258996  -0.45135696
Na  -2.81544718  -1.13986167  -2.07337086
