7
Energy:    -93.25359199
C   -0.50380474   0.69413608  -0.75939659
H   -0.08407812   1.67718342  -0.80784939
H   -1.50469546   0.75169486  -0.38549305
H   -0.51297516   0.26160074  -1.73803246
C    0.34583716  -0.18103286   0.18070339
N    0.97843418  -0.83263591   0.88065056
Na   1.28128215  -2.37094633   2.62941754
