7
Energy:    -95.08482969
C    0.07028818  -0.08707694   1.14635184
H    0.14885153   0.91584835   1.51086364
H    0.91327917  -0.65507339   1.48048551
H   -0.82929130  -0.53199867   1.51743202
C    0.03866074  -0.07269460  -0.39325618
N    0.01511267  -0.06198630  -1.53956433
Na  -0.35690099   0.49298155  -3.72231251
