7
Energy:    -90.36105792
C   -0.00210194   0.88067591  -0.71047398
H   -0.94956685   1.31230992  -0.46368964
H    0.00474496   0.60221795  -1.74358258
H    0.77350691   1.59495797  -0.52845435
C    0.23538834  -0.36781756   0.15927452
N    0.41221064  -1.29737769   0.80684180
Na  -0.47418206  -2.72496650   2.48008423
