7
Energy:    -92.14319444
C   -0.28059270  -0.72553228   0.83690915
H   -0.95036118  -1.49984081   0.52585183
H   -0.74669941  -0.13520458   1.59793269
H    0.61565965  -1.16343162   1.22404605
C    0.06428568   0.16951190  -0.36789574
N    0.32106331   0.83591298  -1.26492774
Na   0.97664466   2.51858441  -2.55191625
