7
Energy:    -94.93954560
C    0.10339765  -0.49760660   1.03824383
H   -0.16809131  -1.53189523   1.00028371
H   -0.59658858   0.03267742   1.64956798
H    1.08459630  -0.40143881   1.45405636
C    0.08940311   0.08937458  -0.38543354
N    0.07898354   0.52640875  -1.44542605
Na  -0.59170072   1.78247989  -3.31129229
