7
Energy:    -93.00986449
C   -0.82404471  -0.45561588   0.64562239
H   -0.35770705  -0.76470256   1.55770506
H   -1.18847920  -1.31484775   0.12235651
H   -1.64019423   0.20007322   0.86668995
C    0.20393794   0.28218865  -0.23215671
N    0.96931776   0.83151765  -0.88570315
Na   2.83716948   1.22138667  -2.07451406
