7
Energy:    -93.46488962
C   -0.16589083  -0.12014892  -1.14804056
H   -0.84658003   0.65273342  -1.43823925
H   -0.54867715  -1.06882719  -1.46170164
H    0.78488138   0.05064581  -1.60821493
C   -0.00368204  -0.11295094   0.38337594
N    0.11708977  -0.10759171   1.52358514
Na   0.66285890   0.70613953   3.74923531
