7
Energy:    -94.71511412
C   -0.94729225   0.53931035  -0.37985523
H   -1.80754107  -0.09589853  -0.41702838
H   -0.78654914   0.97873392  -1.34212737
H   -1.10548107   1.31203000   0.34317986
C    0.28714888  -0.29104531   0.01796955
N    1.20624642  -0.90928284   0.31416819
Na   3.15346822  -1.53384760   1.46369338
