7
Energy:    -95.17921877
C    0.00064885   0.08344686   1.15370430
H   -0.61480327   0.87882914   1.51906150
H    0.99712972   0.20450494   1.52420386
H   -0.39257967  -0.85399874   1.48756979
C    0.01820745   0.11367875  -0.38589881
N    0.03128063   0.13618777  -1.53220330
Na  -0.03988371  -0.56264873  -3.76643734
