7
Energy:    -93.18240783
C   -0.18256826   0.06860600  -1.14551527
H    0.78071137   0.21108898  -1.58901402
H   -0.84324123   0.84497792  -1.47056443
H   -0.57506903  -0.88139777  -1.44272744
C   -0.05318772   0.11343717   0.38838526
N    0.04314198   0.14681602   1.53044393
Na   0.83021289  -0.50352832   3.72899198
