7
Energy:    -91.43148481
C    0.68352384   0.77466112  -0.54560845
H    0.86827044   1.52415323   0.19535744
H    0.12763074   1.20170349  -1.35401228
H    1.61559143   0.39889070  -0.91295800
C   -0.12378464  -0.37784259   0.08016165
N   -0.72486250  -1.23593399   0.54607593
Na  -2.44636932  -2.28563194   1.99098372
