7
Energy:    -93.64772512
C    0.52043935   0.23287362  -1.03758096
H    0.88761526  -0.68381686  -1.44960111
H    1.32544253   0.93231420  -0.95010613
H   -0.23399713   0.63594444  -1.68043289
C   -0.08079880  -0.03457007   0.35475038
N   -0.52844794  -0.23369405   1.39140435
Na  -1.89025326  -0.84905129   3.37156637
