7
Energy:    -91.87164413
C   -0.14068478   0.98640085  -0.58847458
H   -0.93538472   0.95567801  -1.30430158
H    0.79577233   1.07356952  -1.09871845
H   -0.27475374   1.82892298   0.05734356
C   -0.15175006  -0.30744330   0.24665707
N   -0.15998867  -1.27076908   0.86845054
Na   0.86678963  -3.26635898   1.81904345
