7
Energy:    -94.57832324
C   -0.02041186   0.23399014  -1.15397273
H    0.13980502   1.27187461  -1.35897650
H   -0.95284053  -0.07375559  -1.57914144
H    0.77391210  -0.34092586  -1.58224849
C   -0.05223691   0.01058501   0.36940421
N   -0.07593211  -0.15575027   1.50362759
Na   0.18770429  -0.94601803   3.80130735
