7
Energy:    -96.94331352
C    0.27650399   0.16427763  -1.12481987
H    1.33651151   0.24842061  -1.24400129
H   -0.19225981   1.06812577  -1.45378511
H   -0.08390214  -0.65716816  -1.70811510
C   -0.05573016  -0.07542356   0.35968807
N   -0.30309358  -0.25389199   1.46497170
Na  -0.97802981  -0.49434031   3.70606159
