7
Energy:    -91.18569276
C    0.30746220   0.62414095   0.89615042
H    0.41585410   1.67735713   0.74159608
H    1.26018432   0.19847524   1.13285351
H   -0.37162398   0.45030791   1.70455820
C   -0.24237331  -0.02887416  -0.38558753
N   -0.65175084  -0.51507360  -1.33989970
Na  -0.71775249  -2.40633347  -2.74967097
