7
Energy:    -92.20185447
C   -0.77543862   0.77536980  -0.46657970
H   -0.31918001   1.38772091  -1.21608246
H   -1.11176638   1.39133517   0.34111417
H   -1.60937148   0.25545207  -0.88982979
C    0.25219237  -0.24419667   0.05883325
N    1.01731035  -1.00331025   0.45002708
Na   2.54625377  -2.56237101   1.72251745
