7
Energy:    -94.66273400
C    0.29982580  -0.98149601  -0.53042014
H    0.37315336  -1.83407024   0.11195081
H    1.23202744  -0.83339428  -1.03436961
H   -0.47368832  -1.14383345  -1.25168400
C   -0.03410308   0.26606456   0.30843869
N   -0.28272831   1.19493011   0.93300722
Na  -1.11448689   3.33179930   1.46307703
