7
Energy:    -92.81471985
C   -1.02650457  -0.19916320   0.49977231
H   -0.76599280  -0.75077363   1.37883985
H   -1.71746811  -0.76807124  -0.08658264
H   -1.47783265   0.72907788   0.78185483
C    0.24260152   0.07757297  -0.32750445
N    1.18750868   0.28361563  -0.94344961
Na   3.55768792   0.62774159  -1.30293028
