7
Energy:    -90.41126965
C    0.44440096   0.67034114   0.79757588
H    1.37872233   0.34833294   1.20776422
H   -0.28123231   0.74697872   1.58018825
H    0.56946671   1.62575234   0.33233715
C   -0.03595594  -0.35158837  -0.24957136
N   -0.39360349  -1.11246133  -1.02922008
Na  -1.68179826  -1.92735545  -2.63907406
