7
Energy:    -92.39253961
C    0.92157248   0.64481605  -0.39183800
H    0.58996083   1.46740937  -0.99039804
H    1.59590191   0.03903706  -0.96035425
H    1.42219421   1.01567886   0.47806875
C   -0.29220817  -0.20100125   0.03586476
N   -1.19592303  -0.83075067   0.35430890
Na  -3.04149824  -2.13518943   1.47434788
