7
Energy:    -91.69668534
C   -1.07367734   0.40031248   0.18270816
H   -0.98281793   0.84545607   1.15146609
H   -1.80456274  -0.38045137   0.21607635
H   -1.37786921   1.14365116  -0.52426710
C    0.28529297  -0.18649829  -0.24208921
N    1.29710814  -0.62340558  -0.55837016
Na   3.65652610  -1.19906448  -0.22552412
