7
Energy:    -92.47070629
C    0.98425869   0.57661268   0.02986843
H    1.61014379   0.19049038   0.80709271
H    0.65927358   1.56226068   0.29021783
H    1.53520431   0.61317066  -0.88665846
C   -0.24176441  -0.33887392  -0.14434878
N   -1.15459434  -1.02049532  -0.27406142
Na  -3.39252162  -1.58316516   0.17788970
