7
Energy:    -95.15880470
C    0.13788959   0.87312716   0.75705899
H    1.04774534   0.64285731   1.27090575
H   -0.66975486   0.90394177   1.45824370
H    0.23028114   1.82510634   0.27737312
C   -0.14219355  -0.20994672  -0.30129086
N   -0.35072818  -1.01634446  -1.08928043
Na  -0.25323949  -3.01874141  -2.37301028
