7
Energy:    -91.65093612
C    0.66062502  -0.05687327  -0.91772182
H    1.66440833   0.27084425  -0.74474647
H    0.25008931   0.47544621  -1.75018533
H    0.65933178  -1.10573654  -1.12934236
C   -0.19134828   0.21489590   0.33602577
N   -0.82568112   0.41724041   1.26949784
Na  -2.21742503  -0.21581696   2.93647237
