7
Energy:    -92.93197481
C   -0.08550326  -0.15904713  -1.14308513
H    0.77428712   0.33120641  -1.54967111
H   -0.97095515   0.34727288  -1.46637152
H   -0.11101285  -1.17368880  -1.48183374
C   -0.01185499  -0.13304247   0.39493297
N    0.04297950  -0.11368081   1.54005736
Na   0.36205963   0.90097992   3.70597118
