7
Energy:    -91.99019611
C   -1.08090878   0.13999168   0.33089130
H   -1.21716705  -0.09444082   1.36596389
H   -1.57754903  -0.59349240  -0.26931587
H   -1.49282405   1.10620691   0.12680054
C    0.42284474   0.14244038  -0.00125229
N    1.54245759   0.14426355  -0.24854830
Na   3.40314658  -0.84496929  -1.30453927
