7
Energy:    -96.75935339
C    0.45786909   0.16391914   1.06573885
H   -0.04541126  -0.48587058   1.75085373
H    0.34197574   1.17836017   1.38570325
H    1.49825068  -0.08447666   1.03737054
C   -0.14835648  -0.00340221  -0.33999730
N   -0.59971897  -0.12798055  -1.38663176
Na  -1.50460880  -0.64054931  -3.51303730
