7
Energy:    -94.44956302
C    0.02266477  -0.77519942  -0.85821463
H   -0.15196156  -0.18793080  -1.73543832
H   -0.72888371  -1.53288048  -0.78079769
H    0.98690726  -1.23453278  -0.92262243
C   -0.03212436   0.13116540   0.38561051
N   -0.07291735   0.80599520   1.31169486
Na  -0.02368505   2.79338288   2.59976771
