7
Energy:    -92.51283909
C    0.92164791  -0.61437705  -0.27929801
H    0.83842179  -0.75629461  -1.33657422
H    1.04560786  -1.56332169   0.19928019
H    1.76828937   0.00489361  -0.06810809
C   -0.35551146   0.06436345   0.24963989
N   -1.30641465   0.56971661   0.64345819
Na  -2.91204082   2.29501967   0.59160205
