7
Energy:    -94.47860975
C    0.40294399   0.10643801  -1.07437232
H    0.94750736   1.02736769  -1.08984638
H   -0.33743193   0.11685681  -1.84679322
H    1.07646060  -0.70895665  -1.23687164
C   -0.28459398  -0.06044912   0.29348740
N   -0.79649725  -0.18470417   1.31192114
Na  -1.00838879  -0.29655257   3.64247501
