7
Energy:    -95.71814174
C   -0.22322059  -0.99487671  -0.57714993
H   -0.98960040  -0.84844224  -1.30935149
H   -0.56288722  -1.69191626   0.16018415
H    0.65549587  -1.37822392  -1.05233556
C    0.10396520   0.34931882   0.09937637
N    0.34756989   1.35013349   0.60308096
Na   0.66867725   3.21400681   2.07619549
