49
Energy:  -1235.06266677
O   -0.07917766   0.29773792   0.10178136
H    0.27572281   0.71599329   0.88621743
H   -0.99246062   0.11279902   0.32074182
O   -2.93180445   1.52867712  -1.44252842
H   -3.70382853   2.00390606  -1.74972237
H   -2.82421774   0.81421967  -2.07038789
O   -2.52417303  -2.42579173  -0.86833320
H   -1.73515761  -2.83791625  -0.51642428
H   -3.18888890  -3.11381115  -0.83649075
O    2.05526933   1.80394065  -1.39699212
H    2.67984517   1.17345683  -1.03834602
H    2.00774828   2.49625210  -0.73769064
O    0.82186291   1.54895587   2.32107987
H    1.59223058   1.00825308   2.49545299
H    0.12023565   1.13668320   2.82504642
O   -0.40891656   2.57107596  -1.77687049
H   -1.31625768   2.30895003  -1.62113372
H   -0.18679491   3.12374593  -1.02757100
O   -2.16816528  -0.63495706  -2.95521851
H   -2.28168497  -1.33731388  -2.31487483
H   -2.49646792  -1.00282972  -3.77565676
O   -0.18486848  -3.41365240   0.17870245
H    0.47388648  -2.94978290  -0.33811361
H    0.12724210  -4.31802119   0.20929563
O    0.42588143   0.30272001  -2.81480929
H   -0.46442589  -0.00057771  -2.99255969
H    0.87398236  -0.46425732  -2.45818176
O    3.61557426  -0.14960783  -0.23458241
H    4.56428375  -0.24342814  -0.32048878
H    3.45288994  -0.20824059   0.70686747
O   -2.65819686  -0.18157244   0.74334836
H   -2.76403670  -1.00682597   0.27007636
H   -2.96005554   0.48770583   0.12919873
O    2.84856480  -0.32984394   2.39936002
H    3.38518782  -0.51826245   3.16927303
H    2.15716799  -0.99145940   2.42097686
O    1.40286989  -1.59494996  -1.09261904
H    0.87648931  -0.99856478  -0.56019059
H    2.30877950  -1.36375059  -0.88742039
O    0.97986580   3.57455867   0.44445809
H    1.16484939   4.44592816   0.79478385
H    0.90360843   3.01608534   1.21810155
O    0.67405173  -1.92933923   2.39298192
H    0.29971185  -2.51399592   1.73398416
H   -0.07387422  -1.43416028   2.72710231
O   -1.29223227  -0.10043654   3.16272545
H   -1.82828218  -0.12936608   3.95521861
H   -1.92508236  -0.10577624   2.44460005
H    0.66157457   1.52634750  -1.99300909
