49
Energy:  -1231.70074816
O    0.10847220   0.31156908   0.01373275
H    0.11291985   0.55568299   0.93927068
H   -0.14354424  -0.61185271   0.01030256
O   -2.91297222   1.52365473  -1.07339538
H   -3.75161289   1.95149100  -1.24622417
H   -2.76855187   0.96215135  -1.83503084
O   -2.53038436  -2.33283949  -1.48121377
H   -2.92541619  -3.19784310  -1.59053193
H   -1.66291464  -2.50944087  -1.11715321
O    2.01682710   2.15598502  -1.06476089
H    1.87813767   2.72785595  -0.30980345
H    2.55194328   1.43789265  -0.72678772
O    0.38991330   1.17674507   2.56797972
H    1.19581659   0.67163043   2.67573380
H   -0.29729163   0.60976859   2.91800673
O   -0.50754055   2.76872483  -1.34006712
H   -0.30653960   3.21751497  -0.51883763
H   -1.37497286   2.38902897  -1.19998116
O   -2.07751250  -0.15036128  -3.08031198
H   -2.25015180  -0.96696177  -2.61170643
H   -2.44576988  -0.29168271  -3.95246255
O   -0.06513318  -2.42108437  -0.34820590
H    0.27860774  -2.62147422   0.52237893
H    0.71171126  -2.23828498  -0.87672169
O    0.51057911   0.78199196  -2.74921940
H   -0.36791172   0.46435867  -2.95801309
H    1.01518516  -0.01058557  -2.56639314
O    3.45385381   0.01448258  -0.09273486
H    4.40312476   0.11492767  -0.02183142
H    3.16593847  -0.18095860   0.79897100
O   -2.83336316  -0.62618663   0.71104084
H   -2.87303342   0.20333864   0.23507240
H   -2.89934861  -1.29650407   0.03092886
O    2.54548248  -0.55760238   2.45900530
H    3.11226977  -0.70403226   3.21633106
H    1.97517221  -1.32594474   2.43394418
O    1.99275985  -1.42128085  -1.92719031
H    2.57721310  -0.99503264  -1.30032612
H    2.57906690  -1.88588428  -2.52436661
O    0.75584568   3.47506919   1.04221435
H    0.82713544   4.28002400   1.55524200
H    0.58834747   2.79122342   1.69069810
O    0.64669432  -2.53764833   2.32598463
H    0.60163120  -3.37043276   2.79574122
H   -0.12016215  -2.05039093   2.62722081
O   -1.43293778  -0.87435506   3.01411905
H   -2.05920336  -0.91993992   3.73657686
H   -1.97626704  -0.79244881   2.23033558
H    0.62582592   1.80846823  -1.66824784
