49
Energy:  -1224.38105649
O   -0.42514563   0.10593620   1.10878482
H   -0.07571861   0.33498194   1.96998785
H   -1.32106843   0.44283786   1.11595849
O   -2.69230701   1.18172291  -3.16876910
H   -3.06778683   1.68770527  -3.88934429
H   -2.14473908   0.52384822  -3.59725726
O   -1.78439120  -2.15823763  -1.78950823
H   -1.22277889  -2.38772486  -1.04913058
H   -2.52918904  -1.70507412  -1.39434892
O    1.44276908   2.09121986  -0.24502311
H    1.16516139   2.57804067   0.53097387
H    2.16713916   1.54522979   0.06061503
O    0.65883775   0.85142896   3.53394636
H    1.46919041   0.34439592   3.48416767
H    0.28188821   0.61873261   4.38247055
O   -1.01488741   2.08955389  -1.17667238
H   -1.59747779   2.03828778  -0.41891774
H   -1.58065199   1.90788359  -1.92709772
O   -0.93710243  -0.76962019  -3.91455055
H   -1.23968004  -1.38773885  -3.24926268
H   -0.77639884  -1.30956690  -4.68841343
O    0.07647907  -2.40037509   0.24417195
H   -0.15149241  -1.53353411   0.58009988
H    0.87852618  -2.25948322  -0.25892026
O    0.72678778   0.33415763  -2.04385941
H    0.21740386  -0.03146801  -2.76710056
H    1.33223189  -0.36560336  -1.79890262
O    3.40141201   0.33050327   0.60452093
H    4.29311422   0.67822012   0.61837801
H    3.26012168  -0.00311307   1.49050571
O   -3.85127695  -0.35416044  -1.16707189
H   -3.59725346   0.17240470  -1.92498553
H   -4.72550637  -0.67894680  -1.38263765
O    2.87216204  -0.70413927   3.09185542
H    3.53096240  -0.92602410   3.74986837
H    2.41834607  -1.52899760   2.91896340
O    2.37725889  -1.59622906  -1.06478540
H    2.86660006  -1.02732853  -0.47053861
H    3.04155447  -2.16515403  -1.45371677
O    0.60492050   3.19770551   2.06121727
H    0.64143932   4.00024130   2.58163491
H    0.61744468   2.49177645   2.70754471
O    1.47411585  -2.94641913   2.51917523
H    0.92060780  -2.87157235   1.74183447
H    1.32165240  -3.83613932   2.83758490
O   -2.84863854   1.31247150   0.75454663
H   -3.32722975   0.71452668   0.18040005
H   -3.52568715   1.71965347   1.29495377
H    0.37681594   1.51647223  -1.09112819
