49
Energy:  -1223.28962767
O   -0.14041124   0.68520574   0.26482855
H   -0.08731385   0.91365790   1.19284909
H   -0.99979731   0.27508351   0.16742630
O   -2.95640469   1.81330078  -1.66962573
H   -3.64493263   2.16663627  -2.23293306
H   -2.42440472   1.27118210  -2.25213343
O   -2.10589479  -2.12912891  -1.70318096
H   -1.32741772  -2.47537998  -1.26692932
H   -2.52163281  -2.89626489  -2.09674943
O    1.65605378   1.52661706  -1.42793775
H    2.27495638   1.08723125  -0.84472978
H    1.71240779   1.03847790  -2.24938540
O   -0.04316220   1.28051608   2.88021183
H    0.76083520   0.78208642   3.02645784
H   -0.74736441   0.66679515   3.08920397
O   -0.53492804   2.91640507  -1.02589647
H   -0.57455126   3.39680486  -0.19892738
H   -1.44988293   2.74054248  -1.24535433
O   -0.99302023   0.19222068  -2.66918559
H   -1.36513182  -0.66416418  -2.45854422
H   -0.19139833  -0.00684122  -3.15292989
O    0.13549902  -2.79503551  -0.38272710
H    0.22498703  -2.66277711   0.56105861
H    0.98810908  -2.54887391  -0.74146433
O    1.61544005  -0.29749026  -3.46910111
H    1.95603075  -0.99585258  -2.91006633
H    2.04459202  -0.43523157  -4.31354636
O    3.25935286   0.07353037   0.27578166
H    4.13817827   0.40782851   0.45506496
H    2.88289129  -0.08792486   1.14090636
O   -2.68895116  -0.25584462   0.21425647
H   -3.05265197   0.47116575  -0.29112408
H   -2.65775828  -0.98596265  -0.40395589
O    2.12275834  -0.44680404   2.74201514
H    2.63475422  -0.66303368   3.52133331
H    1.53317477  -1.19217265   2.62778429
O    2.55311613  -1.96075213  -1.45972774
H    2.89049233  -1.32331278  -0.83037870
H    3.22932484  -2.63688234  -1.50240753
O   -0.34936448   3.71715757   1.55372876
H   -0.35646221   4.53010859   2.05899316
H   -0.27126093   3.02633924   2.21168143
O    0.22040905  -2.37777719   2.36289099
H    0.10059890  -3.22674875   2.78847844
H   -0.58748478  -1.89957878   2.54961458
O   -1.96093324  -0.75100913   2.82995251
H   -2.70355228  -0.85314697   3.42519756
H   -2.35938629  -0.59760941   1.97325213
H    0.31178946   1.73295009  -0.83549016
