49
Energy:  -1223.50562420
O   -0.39572530   0.16969884   0.23366505
H    0.11998828   0.48295740   0.97672657
H   -1.29449156   0.13839532   0.56149296
O   -3.30739209   1.63176386  -1.41993186
H   -4.03914936   2.07445419  -1.84980209
H   -3.58851647   0.71975195  -1.34620794
O   -3.82861627  -1.04786491  -1.00558714
H   -3.10995019  -1.39469996  -1.53422347
H   -4.56731905  -1.62606762  -1.19593333
O    1.75425572   1.78903853  -1.16684375
H    1.64753380   2.43721113  -0.47062930
H    2.50488504   1.26266329  -0.89167730
O    0.86174322   1.15129367   2.42821195
H    1.70698340   0.70498791   2.47932022
H    0.27575440   0.61768485   2.96497128
O   -0.73469923   2.45413590  -1.58891891
H   -0.58945311   2.96317651  -0.79141464
H   -1.65785155   2.20422900  -1.54931875
O   -1.61159148  -1.82269496  -2.41395460
H   -1.02279652  -2.18790128  -1.75351786
H   -1.63910243  -2.48565421  -3.10385316
O    0.23202938  -2.34488364  -0.49773004
H    0.02921312  -1.45975898  -0.19498962
H    1.02950639  -2.24393201  -1.01741363
O    0.23336766   0.25174773  -2.67202497
H   -0.51343195  -0.34681986  -2.68748580
H    0.99974313  -0.32125590  -2.64820641
O    3.74613189   0.07537119  -0.37218449
H    4.67698346   0.29363655  -0.41809141
H    3.59427199  -0.13568795   0.54902366
O   -2.85631278  -0.09660471   1.39866322
H   -3.37344083   0.70052542   1.51439563
H   -3.28514315  -0.55837640   0.67817501
O    3.10736171  -0.44791389   2.23552498
H    3.69824964  -0.64839567   2.96139712
H    2.48631453  -1.17619052   2.22346683
O    2.31202854  -1.48852470  -2.12289142
H    2.92126301  -1.03937352  -1.53694907
H    2.87245371  -2.00731647  -2.69996210
O    0.59320035   3.36329684   0.77215443
H    0.72181162   4.21784019   1.18379340
H    0.64427982   2.73839019   1.49542092
O    1.11169364  -2.24115825   2.13933602
H    0.78765603  -2.54915518   1.29294995
H    0.33450509  -1.90577285   2.58624366
O   -0.96227913  -0.78234249   3.33165529
H   -1.33740559  -1.05768095   4.16813644
H   -1.71962404  -0.64478771   2.76267444
H    0.32907604   1.44733692  -1.79807858
