49
Energy:  -1225.60137756
O    0.25036682   0.11572648  -0.13993930
H    0.97710960   0.18437231   0.47922507
H   -0.52728540   0.02915315   0.41141716
O   -3.23201258   1.20971261  -0.77067422
H   -4.10003205   1.60372074  -0.85745919
H   -3.20273199   0.54057392  -1.45450747
O   -2.17416901  -2.62845546  -0.58333949
H   -1.22682781  -2.76357391  -0.56054706
H   -2.54397570  -3.50777509  -0.50414451
O    1.64345279   2.08847801  -1.95135866
H    2.10798574   2.85587355  -2.28534232
H    2.33667540   1.49702520  -1.65834358
O   -0.01812703   3.19950365   1.16734339
H    0.30306824   2.65804911   1.88837905
H   -0.04170530   4.08682629   1.52558136
O   -0.87797114   2.50419151  -1.31461956
H   -0.56602402   2.80188537  -0.46004411
H   -1.75670219   2.16490817  -1.14447141
O   -2.62925053  -0.77432565  -2.56981020
H   -2.50192196  -1.50575114  -1.96562808
H   -3.06118126  -1.16354857  -3.33018722
O    0.52596271  -2.54933603  -0.38586294
H    0.47231740  -1.59373855  -0.39955539
H    0.86347231  -2.75829820   0.48514448
O   -0.24822517   0.56248906  -2.96418202
H   -1.07138583   0.07584670  -2.92154876
H    0.42882836  -0.11343054  -2.99521515
O    3.49271120   0.26194465  -1.07941160
H    4.44740872   0.20652541  -1.12080243
H    3.28652269   0.16099043  -0.15015039
O   -2.08358348  -0.45711008   1.15113708
H   -2.60910235   0.19766484   0.69142896
H   -2.23688098  -1.26958984   0.66884217
O    2.43372604   0.00999452   1.46385420
H    2.12404502   0.61804295   2.13512659
H    2.23175451  -0.85754642   1.81429973
O    1.71797525  -1.27252975  -2.62403672
H    1.48721021  -2.02371479  -2.07750183
H    2.46557598  -0.87293251  -2.17946159
O    0.91774385   1.52973677   3.20212952
H    1.19051174   1.86660743   4.05556240
H    0.32538475   0.80650980   3.40776342
O    1.29561929  -2.35337105   2.33213370
H    1.63999632  -3.01134055   2.93604798
H    0.59723042  -1.91972019   2.82247211
O   -0.66184985  -0.73010950   3.47737682
H   -1.26998184  -0.63063882   2.74490640
H   -1.22145988  -0.92464082   4.22919197
H    0.12105463   1.63996049  -2.00039948
