49
Energy:  -1224.03142333
O   -0.07970674   0.31567092   0.00425546
H    0.27007484   0.65269608   0.82905770
H   -1.01015942   0.17363503   0.17836886
O   -3.13496646   1.32845322  -1.61780049
H   -3.94922063   1.67980799  -1.97803905
H   -2.88305888   0.63416428  -2.22668248
O   -2.15970777  -2.56815112  -0.97602596
H   -1.26992514  -2.68645732  -0.64357693
H   -2.55650125  -3.43703895  -0.91421387
O    1.78944615   2.32613392  -1.46757665
H    1.73088268   2.73773048  -0.60537572
H    2.37461787   1.57980304  -1.33797674
O    0.73607653   1.27278424   2.39196231
H    1.46107887   0.68769844   2.61168502
H   -0.02076214   0.89619521   2.84096986
O   -0.77481047   2.73105840  -1.63730201
H   -0.64705211   3.16078387  -0.79158003
H   -1.65387640   2.35584024  -1.58547284
O   -1.98669722  -0.74489786  -3.02866470
H   -2.23811150  -1.13871179  -3.86408873
H   -2.05328320  -1.46043101  -2.39635903
O    0.34766187  -2.33971307   0.10120978
H    0.26091248  -1.38903922   0.03102701
H    1.29108019  -2.49781507   0.06660533
O    0.34960095   0.72055370  -2.92372272
H   -0.41231588   0.14651248  -3.00240732
H    1.07897295   0.12778771  -2.74240305
O    3.10765577  -1.96616814   0.29288399
H    3.79771606  -2.61796674   0.41620155
H    3.04194259  -1.52324375   1.13889322
O   -2.65553761  -0.30023431   0.57206579
H   -3.05096096   0.30482340  -0.05545106
H   -2.68287047  -1.15127289   0.13478089
O    2.59617209  -0.75747580   2.72398067
H    3.12765500  -0.83011973   3.51674837
H    1.84180057  -1.32335457   2.88810460
O    2.78932976  -0.24721562  -1.84239033
H    2.91784641  -0.85392191  -1.11326565
H    3.55513524  -0.37828458  -2.40149206
O    0.60414745   3.48542941   0.75654276
H    0.73839423   4.32958117   1.18737619
H    0.64367872   2.84465768   1.46652918
O    0.31925785  -2.15190572   2.85848642
H    0.20811762  -2.39223115   1.93863677
H   -0.42236570  -1.57705916   3.04763659
O   -1.56660209  -0.13203767   3.12182983
H   -2.19245990  -0.07738994   3.84401227
H   -2.11071066  -0.17644605   2.33556931
H    0.42727955   1.91294517  -2.00509338
