49
Energy:  -1233.36765479
O   -0.10378934   0.23719769   0.08374067
H    0.13647472   0.55191779   0.95520856
H   -1.03920501   0.04446475   0.14764199
O   -2.94532950   1.41900635  -1.62691285
H   -3.70725225   1.84638726  -2.01813034
H   -2.59745175   0.86329074  -2.32433172
O   -1.87898399  -2.42335071  -1.58436078
H   -1.02462171  -2.56493555  -1.17662228
H   -2.21072937  -3.30417863  -1.75848437
O    1.90644866   2.43469356  -0.70882105
H    1.63843193   2.95019092   0.05187689
H    2.49311206   1.76773794  -0.35213057
O    0.33042827   1.06977354   2.61349154
H    1.12375462   0.55998468   2.77774888
H   -0.38274124   0.50875420   2.91825110
O   -0.59034177   2.79662997  -1.33552214
H   -1.45985150   2.40267129  -1.40610007
H   -0.58540262   3.21455248  -0.47439019
O   -1.54293382  -0.27172013  -3.28109208
H   -1.65783941  -1.08779867  -2.79422005
H   -1.69451216  -0.51392063  -4.19465367
O    0.52786709  -2.34084497  -0.29897983
H    0.57328982  -2.71319612   0.58165815
H    0.37712169  -1.40632510  -0.15692253
O    0.83869063   0.97014603  -2.60654746
H    0.04478688   0.54084318  -2.92536989
H    1.46187620   0.25550480  -2.47555319
O    3.25592079   0.34568530   0.26496280
H    3.14623454  -0.30558541  -0.42789161
H    3.04281037  -0.12371997   1.07148279
O   -2.67601067  -0.55415601   0.32171800
H   -3.02572507   0.15862236  -0.21295824
H   -2.60642521  -1.29445884  -0.28106010
O    2.37212747  -0.79720642   2.64365412
H    3.04187597  -1.00428581   3.29541092
H    1.80313291  -1.56683369   2.63136970
O    2.44432166  -1.19063452  -1.90374501
H    1.88239789  -1.80293488  -1.42881156
H    3.04323437  -1.74933651  -2.39911103
O    0.26667827   3.49732953   1.25753733
H    0.29358500   4.28154984   1.80572195
H    0.25684838   2.76989997   1.87961566
O    0.40998081  -2.73617247   2.46431004
H    0.29295181  -3.52321710   2.99637847
H   -0.34920108  -2.19128140   2.67159830
O   -1.64874222  -0.91287327   2.88455226
H   -2.31503663  -0.92218936   3.57171805
H   -2.14372557  -0.81045326   2.07169712
H    0.73748559   2.01003588  -1.53997672
