49
Energy:  -1228.33419536
O    0.11899207   0.37171683   0.21533511
H    0.15720657   0.89661953   1.01486538
H   -0.74891938  -0.03152530   0.23423862
O   -2.79688246   1.32021694  -1.73104520
H   -3.59097478   1.73488073  -2.06824423
H   -2.59834752   0.63098856  -2.36490635
O   -2.27566322  -2.59766901  -1.27286712
H   -1.43970049  -2.79615371  -0.85096430
H   -2.75000024  -3.42906433  -1.26861717
O    2.16063760   1.93664579  -1.27653612
H    2.00642135   2.65794984  -0.66647902
H    2.62991661   1.28157172  -0.75992501
O    0.37607114   1.77634653   2.49321348
H    1.14282846   1.31557366   2.83380623
H   -0.37018551   1.32275254   2.88511315
O   -0.32248447   2.48767138  -1.83433575
H   -0.21726476   3.06972250  -1.08175542
H   -1.22714411   2.18048650  -1.77551204
O   -1.78711240  -0.74138772  -3.23577996
H   -1.96081243  -1.46878653  -2.63832609
H   -2.01366432  -1.08220587  -4.10108283
O    0.08024920  -2.84700091  -0.00490087
H    0.32113589  -2.55006113   0.87261392
H    0.83558451  -2.62474326  -0.54923712
O    0.73392407   0.23578198  -2.69677997
H   -0.11217067  -0.11166810  -2.97897491
H    1.24379865  -0.53840954  -2.45826948
O    2.75140482  -0.20554332   0.33745283
H    3.01044768  -0.15895712   1.25775624
H    1.79607126  -0.14808790   0.35383868
O   -2.49075718  -0.42109676   0.40969443
H   -2.77490797   0.25116866  -0.20961921
H   -2.56343264  -1.24202517  -0.07715943
O    2.39213960  -0.03399558   3.11051389
H    2.91774121  -0.19939338   3.89321330
H    1.81828179  -0.79695588   3.04115506
O    2.12459855  -1.92552510  -1.67495722
H    2.60665814  -1.46872266  -0.98562281
H    2.77402606  -2.49842669  -2.08270658
O    0.79337317   3.65172611   0.45992185
H    0.91134176   4.55772784   0.74536209
H    0.63299348   3.16445420   1.26805321
O    0.48038210  -1.96815560   2.65020149
H    0.33171881  -2.75191836   3.17920717
H   -0.28313146  -1.41615207   2.81923109
O   -1.60554087  -0.17811183   3.00787832
H   -2.06299348  -0.25958149   2.17102012
H   -2.30351897  -0.16673478   3.66280502
H    0.84287392   1.51555190  -1.92027078
