49
Energy:  -1224.85808141
O    0.07469138   0.28154287   0.10361655
H    0.34205725   0.65661191   0.94270567
H   -0.83006820   0.00193596   0.24312255
O   -2.88743603   1.18761949  -1.50962816
H   -3.71365334   1.59169516  -1.77480668
H   -2.63435443   0.64600989  -2.25718457
O   -0.62963289  -2.30103449  -2.08725860
H    0.30886984  -2.13326903  -2.00182303
H   -0.90200791  -2.59011306  -1.21635260
O    1.97992087   2.14974571  -1.06368990
H    1.80969260   2.74081291  -0.33027749
H    2.47038703   1.42383225  -0.67804182
O    0.68833222   1.33346995   2.54007087
H    1.37399493   0.67884061   2.67258095
H   -0.08592993   0.95833921   2.95962646
O   -0.55255832   2.68019075  -1.45583184
H   -0.45430502   3.13673751  -0.62028221
H   -1.41104975   2.26047659  -1.40047547
O   -1.79799823  -0.33329129  -3.49329337
H   -1.47432127  -1.11733953  -3.04974695
H   -2.06570801  -0.64075431  -4.35933599
O   -1.54776773  -2.94106614   0.43269707
H   -1.89212179  -3.82969725   0.52206646
H   -0.94514927  -2.84195596   1.16975881
O    0.61908804   0.78309030  -2.84061932
H   -0.20773912   0.46141409  -3.19994245
H    1.13293187  -0.00752509  -2.67592666
O    3.28384708  -0.07307238  -0.04488553
H    4.23184057  -0.02764938   0.07952087
H    2.94698453  -0.39252561   0.79219577
O   -2.49715599  -0.35406469   0.75969873
H   -2.82824352   0.09639350  -0.01728281
H   -2.42919607  -1.27131218   0.49461318
O    2.32481650  -0.89629301   2.42482305
H    1.57702495  -1.49376229   2.43319530
H    2.90467872  -1.22795969   3.11038040
O    2.02666913  -1.43457198  -2.10183644
H    2.48652086  -1.07669541  -1.34243365
H    2.70304803  -1.89856432  -2.59524756
O    0.68389128   3.56564507   0.92327838
H    0.79329815   4.40612226   1.36809304
H    0.67157716   2.91999565   1.62983130
O   -0.01672170  -2.37374357   2.69540416
H   -0.06226638  -3.01766862   3.40217008
H   -0.56430760  -1.64843310   2.99591413
O   -1.52470776  -0.15179513   3.30356707
H   -2.18217391   0.04882460   3.96969156
H   -2.00996408  -0.14758839   2.47849710
H    0.66357294   1.80427332  -1.75839841
