49
Energy:  -1223.55032047
O   -1.61363264   2.07683787   2.02290122
H   -1.75323316   2.77573636   2.66187261
H   -2.47723297   1.92753945   1.63801643
O   -3.94862575   1.58677512   0.75954963
H   -4.78966931   2.04000189   0.70070177
H   -4.15728036   0.66965678   0.58181658
O   -2.46742744  -1.10621655  -1.75546446
H   -2.58307457  -1.91662018  -2.25155270
H   -3.16686342  -1.12283749  -1.10220731
O    3.02009574  -0.57282606  -2.88256270
H    3.51152723  -0.78668780  -3.67565166
H    3.68195876  -0.25472281  -2.26857613
O    2.05435163  -0.05790043   2.52840540
H    1.12477918  -0.28056278   2.57888695
H    2.27239658   0.26195734   3.40383630
O    1.15503939   1.33724865  -2.24990032
H    1.72210295   0.65758735  -2.61422337
H    0.32277977   1.22737320  -2.70979507
O   -1.61647656   1.37062707  -2.62052915
H   -2.22138078   1.75482283  -3.25512851
H   -2.00882011   0.52709535  -2.39524571
O   -0.16538559  -0.62399775  -0.32076161
H    0.50243945  -1.26780913  -0.55687273
H   -0.93987374  -0.88851087  -0.81718154
O    2.08732598   1.41786453   0.19847058
H    2.02945535   0.98769453   1.05160399
H    2.95390176   1.18058871  -0.13164826
O    3.73005604  -1.67419800   1.02548920
H    4.12566340  -2.38281773   1.53301727
H    3.16583483  -1.21791446   1.64974203
O   -4.34821220  -1.08747130   0.23758780
H   -5.19997798  -1.52390529   0.25347103
H   -3.88300578  -1.44145899   0.99555056
O    4.45224897   0.33258996  -0.70808087
H    4.37782077  -0.40140261  -0.09820612
H    5.34541622   0.65505149  -0.58765378
O    1.87552275  -2.23076322  -0.97581149
H    2.55014583  -2.20126620  -0.29739755
H    2.28831985  -1.83270079  -1.74221654
O   -0.30624072   2.37240499  -0.35971604
H   -0.99860179   2.20987056  -1.00038019
H   -0.74923684   2.33198190   0.48784061
O   -0.61611954  -0.46246986   2.32724261
H   -0.99453868   0.41522430   2.37904767
H   -0.49188854  -0.61534543   1.39053158
O   -2.90585851  -1.95845929   2.34939492
H   -2.07851284  -1.48804837   2.45159354
H   -2.92050454  -2.57928241   3.07781513
H    0.94905406   1.65420308  -0.76277175
