49
Energy:  -1223.56854486
O   -0.05907840   0.04557376   0.01484594
H   -0.46864334  -0.03947517   0.87580767
H   -0.52793110  -0.58055382  -0.53685438
O   -3.08123628   1.33535109  -1.21425510
H   -3.78165147   1.94426020  -1.44852013
H   -2.77279653   0.99049818  -2.05221287
O   -1.46627979  -1.76142103  -1.50281865
H   -0.87155225  -2.45326612  -1.21319585
H   -2.17389742  -1.76784205  -0.85825065
O    1.82502079   2.27294499  -0.48606024
H    1.57686940   2.77693461   0.28895408
H    2.35373362   1.55191311  -0.14428893
O    0.41705767   1.34156457   3.05089828
H    1.13668218   0.71252922   2.99906251
H   -0.37425172   0.80360894   3.02510969
O   -0.69798057   2.70952583  -0.98140631
H   -0.61395445   3.13029886  -0.12576532
H   -1.54162380   2.25875061  -0.94535572
O   -1.78125737   0.19794439  -3.36068433
H   -1.71137269  -0.62582073  -2.87823330
H   -2.05174900  -0.06190821  -4.24133339
O    0.71789707  -3.19458697  -0.61865057
H    1.25623143  -2.53147117  -1.05074478
H    1.00318482  -4.02332303  -1.00340930
O    0.68934738   1.08861918  -2.53647404
H   -0.12282512   0.83143445  -2.97289550
H    1.16199139   0.26664961  -2.40530426
O    3.29861661   0.09860945   0.29260826
H    4.22494854   0.25887897   0.47276013
H    2.94033056  -0.20245099   1.12760860
O   -3.35741073  -0.95431453   0.35284638
H   -3.36378762  -0.11279817  -0.10326918
H   -4.27976217  -1.13729841   0.53177813
O    2.24428936  -0.72815630   2.68353893
H    2.67604330  -0.97535627   3.50128740
H    1.62167020  -1.43595096   2.51739456
O    2.16952237  -1.17964743  -1.86494825
H    2.59218578  -0.78314848  -1.10312408
H    2.88590667  -1.34498809  -2.47788206
O    0.33975049   3.51722083   1.46381644
H    0.36927294   4.31365660   1.99395823
H    0.33016870   2.80414408   2.10230026
O    0.38702554  -2.69095816   2.08366857
H    0.51959346  -2.90124591   1.15931114
H    0.30125914  -3.54192434   2.51347379
O   -1.42332379  -0.58428087   2.29808791
H   -2.20436953  -0.76636100   1.77554966
H   -0.95569445  -1.41888539   2.32955117
H    0.58952869   1.93994533  -1.29813637
