49
Energy:  -1229.91202932
O    0.21653033   0.21593565   0.17251233
H   -0.02355596  -0.68895189  -0.02690925
H    0.95081167   0.14066946   0.78193645
O   -3.09537812   1.20007708  -0.99997061
H   -3.96908249   1.56386220  -1.14326370
H   -2.93433517   0.65267278  -1.76850528
O   -2.40335729  -2.62977630  -1.38006321
H   -1.49763941  -2.72417063  -1.08511121
H   -2.72822622  -3.52754696  -1.44861882
O    1.81580537   2.25378971  -1.13516122
H    1.69912254   2.73713896  -0.31724284
H    2.53848075   1.65187004  -0.95721501
O    0.45419262   1.46946819   3.19503767
H    0.42833083   1.71458381   4.11996001
H   -0.19862980   0.77429393   3.11265146
O   -0.76971938   2.59418049  -1.17386172
H   -0.56567932   2.96692949  -0.31615683
H   -1.61687700   2.16509700  -1.05368195
O   -2.18259514  -0.43696608  -3.00595123
H   -2.28700913  -1.26050164  -2.52938145
H   -2.54941671  -0.61291628  -3.87238952
O    0.14246865  -2.46808230  -0.45852123
H    0.49519113  -2.63689361   0.41516146
H    0.90933851  -2.25321136  -0.98953249
O    0.31226178   0.70913188  -2.66402805
H   -0.53044797   0.30636184  -2.87342821
H    0.91344303  -0.02926509  -2.56613591
O    3.64704468   0.30590633  -0.48925189
H    4.59212889   0.43505206  -0.40944552
H    3.35001503   0.14714378   0.40673901
O   -2.70955417  -0.89237656   0.78934329
H   -2.87123400  -0.08699484   0.29796587
H   -2.75746100  -1.58758790   0.13312840
O    2.32416420  -0.09042521   1.87365426
H    2.01375948  -0.96544191   2.10652021
H    1.88191830   0.49307532   2.49023964
O    2.10001031  -1.32600772  -2.07960050
H    2.73769194  -0.84052706  -1.55624353
H    2.62427561  -1.76748815  -2.74778668
O    0.59735547   3.34136883   1.13277258
H    0.65352190   4.19571877   1.56074845
H    0.49514552   2.71866570   1.85251266
O    0.88947884  -2.41768493   2.21919212
H    1.00628263  -3.15495089   2.81838127
H    0.12811064  -1.94894043   2.56099455
O   -1.17797737  -0.78229245   3.02585922
H   -1.80436719  -0.99068774   3.71899632
H   -1.70103545  -0.77398733   2.22425263
H    0.41615614   1.77026501  -1.60971057
