49
Energy:  -1224.48929437
O   -0.14468528   0.12072097   0.31926717
H    0.09328184   0.36331691   1.21411392
H   -1.07131020  -0.11331437   0.37242323
O   -2.72512542   1.31963657  -1.56300795
H   -3.43845619   1.77080680  -2.01449050
H   -2.30786188   0.79017720  -2.24256351
O   -3.25715208  -3.06057154  -0.32131177
H   -3.18672852  -3.72864084   0.36056489
H   -4.01074410  -3.33139087  -0.84570456
O    1.98595675   2.25470546  -0.16035084
H    1.67665081   2.71856484   0.61772123
H    2.65253310   1.65176549   0.16884699
O    0.52899796   0.75070661   2.84738564
H    1.14273701   0.01927764   2.91497179
H   -0.30271600   0.39589741   3.16138273
O   -0.45906174   2.76062931  -0.92275325
H   -0.52376080   3.09478879  -0.02811180
H   -1.30229607   2.33661628  -1.08212911
O   -1.19707432  -0.19131406  -3.26419951
H   -1.13475867  -1.03068954  -2.80835151
H   -1.28544115  -0.42589388  -4.18799357
O    1.16603682  -2.16790555  -0.10402643
H    0.65280905  -1.37135939   0.03141110
H    1.82864141  -1.91975335  -0.74870269
O    1.02174093   1.07063323  -2.29339425
H    0.28863927   0.62273457  -2.71550869
H    1.70665614   0.40476926  -2.23217186
O    2.95716891  -0.80652984  -1.73191661
H    3.65449584  -1.11718710  -2.30937575
H    3.41652500  -0.44419694  -0.97432919
O   -2.79098190  -0.46235586   0.57190452
H   -3.00139385   0.13953039  -0.14202237
H   -3.03960691  -1.32495153   0.23972059
O    3.76425121   0.32125185   0.65460739
H    4.62413639   0.52100424   1.02464564
H    3.35089054  -0.24943154   1.30243859
O   -0.99242512  -2.44922011  -1.81729587
H   -0.23564611  -2.58775705  -1.24780056
H   -1.73548450  -2.78257308  -1.31433424
O    0.32186802   3.27686646   1.76499994
H    0.27341879   4.00782037   2.38110944
H    0.34424542   2.49683959   2.31933664
O    2.30478966  -1.36816155   2.26521948
H    1.91134760  -1.82762295   1.52337690
H    2.57334123  -2.06497583   2.86401975
O   -1.98182302  -0.22008362   3.21994739
H   -2.69687846  -0.23487698   3.85611460
H   -2.41468263  -0.30416389   2.37036225
H    0.81278857   1.97225235  -1.13020445
