49
Energy:  -1228.22008685
O   -0.07559779   0.18345035   0.00553504
H    0.10184525   0.54592104   0.87349864
H    0.09833393  -0.75340327   0.09655642
O   -2.97714023   1.17002103  -1.22292129
H   -3.69957513   1.68002186  -1.58928015
H   -2.73482850   0.56145478  -1.92089263
O   -2.17597138  -2.55309693  -1.03492905
H   -2.54179342  -2.01096641  -0.33600088
H   -2.65367600  -3.38018893  -0.97208828
O    1.91125624   2.01974181  -1.13987563
H    1.76423161   2.66355050  -0.44696440
H    2.50928057   1.38129703  -0.75130515
O    0.45482016   1.38735701   2.38842457
H    1.27674508   0.94145288   2.59297474
H   -0.21944589   0.85093490   2.80537596
O   -0.61753988   2.53526781  -1.54484982
H   -0.43895665   3.08890438  -0.78470088
H   -1.44559154   2.10232526  -1.33718892
O   -1.96318103  -0.64888741  -3.00400991
H   -2.02169222  -1.40013163  -2.41372150
H   -2.27835054  -0.97951562  -3.84519063
O    0.39341347  -2.49414973  -0.04096863
H    1.00384485  -2.36899800  -0.76756509
H   -0.44691412  -2.67530186  -0.46199749
O    0.52393778   0.51526962  -2.79651950
H   -0.32410594   0.10211560  -2.95886931
H    1.11536602  -0.21470532  -2.61326810
O    3.50606253   0.04899810  -0.08460218
H    4.45410598   0.18098938  -0.07972570
H    3.27465457  -0.06333511   0.83738668
O   -3.15905405  -0.73594362   0.80381111
H   -3.02472170   0.00692911   0.21531577
H   -4.09452751  -0.71613514   1.00562509
O    2.74017802  -0.15833106   2.54901250
H    3.30999576  -0.22142467   3.31553633
H    2.15193178  -0.90963529   2.62477646
O    2.17079241  -1.51342891  -1.93129111
H    2.72334960  -1.06826703  -1.28884010
H    2.78329212  -2.02000108  -2.46463957
O    0.59730597   3.57992937   0.73511240
H    0.67644159   4.42079455   1.18557344
H    0.50419424   2.93827559   1.43927323
O    0.83369329  -2.03320009   2.63843290
H    0.70834863  -2.41577414   1.77001039
H   -0.01487844  -1.64703893   2.85531403
O   -1.46952150  -0.52172491   3.00895574
H   -2.03154698  -0.65619856   3.77202588
H   -2.06032395  -0.59661368   2.25957200
H    0.56721468   1.60716075  -1.78187492
