49
Energy:  -1226.74857376
O   -0.28004611  -0.06403801   0.66836798
H   -0.15230042   0.43977777   1.47216058
H   -1.20828784   0.04504606   0.46172866
O   -2.19207795   1.45096456  -2.31245676
H   -2.72582352   1.98967896  -2.89652380
H   -2.06308273   0.63257992  -2.79187168
O   -2.55571648  -2.43293071  -1.01310115
H   -1.78249326  -2.67759625  -0.50467566
H   -3.16051586  -3.16584291  -0.89782210
O    2.43089190   0.79080412  -0.40410458
H    2.74818268   1.57655717   0.04103646
H    2.80452801   0.06467759   0.09526318
O   -0.37750787   1.73113843   2.77466107
H   -1.33195905   1.65877926   2.77901472
H   -0.12575985   1.64042037   3.69369589
O    0.32794926   2.03367051  -1.36122152
H    0.25746408   2.65040699  -0.63259281
H   -0.56213760   1.96820714  -1.70718652
O   -1.57400811  -1.07873425  -3.19582868
H   -1.96328713  -1.64081198  -2.52593144
H   -1.72846201  -1.54334959  -4.01833000
O   -0.22470202  -2.74913021   0.37218484
H   -0.20353687  -1.80811945   0.54620389
H    0.50533845  -2.89856443  -0.22859979
O    0.87515524  -0.41971071  -2.13142447
H    0.06883150  -0.66893301  -2.58304614
H    1.31722239  -1.24994513  -1.95388773
O    2.98657925   3.11087904   0.83934794
H    3.57476167   3.85488133   0.96870748
H    2.10876630   3.47784496   0.94428732
O   -2.90533318   0.13745001   0.01086971
H   -2.99578059  -0.76055121  -0.30794830
H   -2.82979302   0.66737929  -0.78266699
O    3.37261580  -1.49968858   0.80321069
H    4.26237171  -1.55772164   1.15134634
H    2.82434151  -1.90030012   1.47784951
O    2.02541060  -2.73558318  -1.24232363
H    2.62955879  -2.40931967  -0.57539865
H    2.50599541  -3.43967680  -1.67766518
O    0.26486397   3.60885596   0.89625110
H    0.02709897   3.01837816   1.61111865
H   -0.22312982   4.41239113   1.07632093
O    1.61695310  -2.79320785   2.41985594
H    0.86278401  -2.93435470   1.84754623
H    1.46824802  -3.37944115   3.16177855
O   -3.04795395   1.41666028   2.46595251
H   -3.92538393   1.47986884   2.84324970
H   -3.17695837   0.96277909   1.63313706
H    1.17805209   0.80134362  -1.22590751
