49
Energy:  -1230.61655836
O    0.39451658  -0.54962949   0.15484754
H    1.16179604  -0.74176259   0.69391984
H   -0.35181860  -0.73965720   0.72327090
O   -3.24679660   1.36216844  -0.68238519
H   -3.99880432   1.95435390  -0.67667490
H   -2.92874229   1.38685149  -1.58486181
O   -1.91521816  -1.37130399  -2.62410277
H   -1.06130431  -1.79022972  -2.51656569
H   -2.37836766  -1.55735411  -1.80733491
O    1.75914710   2.05549698   0.44483875
H    1.80356904   1.95220111   1.39541147
H    2.52109503   1.57866249   0.11575504
O   -0.97225378   1.29939238   3.07443606
H   -1.58503159   1.55211018   3.76499302
H   -1.24157122   0.41496538   2.82646658
O   -0.86935392   2.13077217   0.45429253
H   -0.95189383   1.95942493   1.39240720
H   -1.72968233   1.91513106   0.09434005
O   -1.94060572   1.26453828  -3.07863030
H   -1.93926630   0.30777634  -3.04970519
H   -2.20029940   1.47717081  -3.97505567
O    0.62940488  -2.20705218  -1.96449576
H    0.78314733  -3.11205524  -1.69326788
H    0.51192700  -1.72742939  -1.14450016
O    0.43528104   1.71366395  -1.79338779
H    1.05979987   1.11681158  -2.20566844
H   -0.35935889   1.63126874  -2.32063560
O    3.70397953   0.32086566  -0.41115506
H    4.63061893   0.48374782  -0.58733871
H    3.33633837   0.08175964  -1.26197827
O   -3.24467370  -1.37570535  -0.18630318
H   -3.37427046  -0.43446709  -0.30252310
H   -4.12851359  -1.74299701  -0.19878318
O    2.50024540  -1.03957983   1.76363519
H    3.15085941  -0.73472114   1.13118406
H    2.38414393  -0.30221810   2.36284298
O    2.25555398  -0.14332827  -2.71772131
H    1.74858741  -0.94304807  -2.57748940
H    2.56208370  -0.20899113  -3.62213259
O    1.77568881   1.30832921   3.08035420
H    2.15885044   1.71384075   3.85815842
H    0.83470196   1.29539636   3.25530660
O    0.49375838  -2.95749252   2.29464911
H    0.72659771  -3.73613472   2.80035062
H    1.31320283  -2.46925561   2.21485344
O   -1.53075868  -1.12290835   1.96839904
H   -2.19105837  -1.41968821   1.34217394
H   -1.01074371  -1.90406218   2.15711834
H    0.44109456   1.89343325  -0.29292709
