49
Energy:  -1223.92606111
O    0.09296503   0.08272513   0.04347932
H    0.78553024   0.14076442   0.70167132
H   -0.68142315  -0.19347048   0.53365356
O   -3.36049281   0.72375907  -0.96071443
H   -4.25961369   0.98241776  -1.16297459
H   -3.14693737   0.06290806  -1.61942671
O   -1.79214367  -2.89000592  -0.49847943
H   -0.84849738  -3.02917836  -0.41851339
H   -2.17765380  -3.74598965  -0.31164890
O    1.46548681   2.14064410  -1.49872746
H    1.31778597   2.74103068  -0.76800708
H    2.23634122   1.63476163  -1.24163168
O    0.59209190   2.22783769   2.96989561
H    0.82481408   2.63342264   3.80510402
H   -0.19388167   1.71646529   3.16218616
O   -1.14264071   2.23911972  -1.47145047
H   -0.95148753   2.78464446  -0.70849892
H   -1.96583605   1.80190632  -1.25367599
O   -2.24046911  -1.16910015  -2.59921062
H   -2.08872029  -1.83652073  -1.93006645
H   -2.59350998  -1.65344177  -3.34553975
O    0.92839443  -3.23364013  -0.31644444
H    1.31115405  -2.57922922  -0.90080159
H    1.39138433  -4.04429162  -0.52790689
O    0.07860800   0.31339590  -2.79877352
H   -0.73305954  -0.19353308  -2.82000206
H    0.75805031  -0.32980611  -2.59658259
O    3.46362179   0.46341585  -0.65167793
H    4.39213041   0.68417959  -0.57841834
H    3.15708142   0.41171692   0.25363532
O   -2.27222504  -0.69539499   1.14614472
H   -2.79187882  -0.17161384   0.53635369
H   -2.19326452  -1.54972408   0.72174056
O    2.19754182   0.35016394   1.74760773
H    1.99559030  -0.51289542   2.10896070
H    1.74038920   0.96398718   2.32246802
O    2.08978343  -1.43243260  -2.08853623
H    2.64176823  -0.84325151  -1.57432783
H    2.64511321  -1.70514502  -2.81892560
O    0.25067501   3.54582562   0.56408012
H    0.24567489   4.48064195   0.76981120
H    0.34137791   3.11367410   1.41334445
O    1.38366608  -2.19355713   2.22582458
H    1.21264515  -2.61029341   1.38124506
H    1.38792944  -2.91620011   2.85351940
O   -1.59357920   0.69857164   3.42539532
H   -1.88990200   0.14701957   2.70136842
H   -2.19604890   0.49836210   4.14175993
H    0.12241295   1.47288728  -1.86394177
