49
Energy:  -1226.43485511
O   -4.16229186   0.07054562  -0.55890808
H   -4.94392964   0.41075549  -0.99426019
H   -3.87101844  -0.65018108  -1.11742815
O    1.90893690   1.22581728   3.38961289
H    2.33918189   0.37737770   3.28344609
H    2.13846312   1.50193111   4.27691820
O   -1.78416270   1.35348840  -0.07027975
H   -1.42073835   1.46695182  -0.94850561
H   -2.64442486   0.95970017  -0.21557839
O    2.22946382  -1.19105157  -2.67220575
H    1.28926978  -1.36589652  -2.63102005
H    2.58383403  -1.90699684  -3.19953483
O    0.12077668  -1.80340105   2.90923283
H    1.07094610  -1.71252172   2.98100245
H   -0.09114023  -2.55384291   3.46435452
O    2.50386254   2.11026055  -0.53294759
H    2.36548995   2.03609651  -1.47718515
H    3.12497213   2.83228878  -0.43739676
O   -0.74030899   1.43245530  -2.63210882
H   -1.23772494   1.88815226  -3.31118871
H    0.17608835   1.58755198  -2.86100355
O    2.84629621  -1.28746317   2.70390798
H    3.63297860  -1.75909285   2.97763797
H    2.98087817  -1.11696944   1.77167870
O   -1.43192550   0.43899848   2.37114207
H   -2.34151273   0.14210630   2.39830748
H   -0.93071824  -0.28923112   2.73816356
O   -0.47786271  -1.29420004  -2.33853246
H   -0.35639193  -1.30034968  -1.38909111
H   -0.65765206  -0.37848599  -2.55154751
O    2.81212847  -0.57972922   0.01422607
H    2.85364032   0.37011334  -0.09671415
H    2.82527123  -0.92635034  -0.87791345
O    1.96745010   1.50447906  -3.15620231
H    2.42281248   1.79297184  -3.94718200
H    2.15307083   0.56708413  -3.10081683
O    0.42159322   1.89528169   1.24710716
H    0.91629365   1.76017901   2.05534635
H    1.08906336   2.06911528   0.58340742
O    0.14613908  -0.99600555   0.27222360
H    1.09067234  -0.85162937   0.21526494
H    0.02637886  -1.48163287   1.08834580
O   -3.96488978  -0.43178430   2.14213984
H   -4.79575857  -0.61334456   2.58137188
H   -4.19476369  -0.35474709   1.21615113
O   -3.15588558  -1.85299206  -2.18203090
H   -3.39535250  -2.67917605  -2.60192073
H   -2.21001005  -1.78341028  -2.31129695
H   -0.91607082   1.17543504   1.16960579
