49
Energy:  -1226.40689772
O    0.77436119  -0.29312531   0.47414235
H    1.64682784  -0.32748298   0.86638378
H    0.17701884  -0.46468303   1.20214091
O   -3.47128465   1.32050719  -0.60782179
H   -4.20287366   1.91902778  -0.75876039
H   -3.30148912   0.92825728  -1.46429207
O   -2.24424505  -2.06877712  -1.29505236
H   -1.37076633  -2.41680236  -1.11576152
H   -2.60538209  -1.87005732  -0.43115286
O    1.63963710   2.22691001  -0.73295972
H    1.86981842   2.44648858   0.16983243
H    2.37915039   1.70830809  -1.04982560
O   -0.45405277   1.93957811   2.66250547
H   -0.94953943   2.36951113   3.35955813
H   -0.63728617   1.00718033   2.77779537
O   -0.89866477   2.09900653  -0.06664058
H   -0.82001674   2.11099091   0.88724762
H   -1.82271236   1.90915490  -0.22888809
O   -2.56382240   0.06996341  -2.86283954
H   -2.49208493  -0.77136628  -2.41200705
H   -2.93875940  -0.14643544  -3.71655240
O    0.37563730  -2.66670803  -0.72227443
H    0.53219113  -1.81280996  -0.31906131
H    0.87323530  -2.64102950  -1.53956795
O   -0.02030937   0.82019539  -2.19495641
H   -0.88229597   0.57893545  -2.53407966
H    0.55049050   0.09668999  -2.45372137
O    3.62027892   0.40522194  -1.33832654
H    4.51702442   0.61159754  -1.60193319
H    3.69121992   0.16337399  -0.41490422
O   -3.29173530  -0.91933805   1.01461319
H   -3.47924115  -0.12121672   0.52057295
H   -4.14775135  -1.21853208   1.32112796
O    3.34927330   0.02888074   1.38920060
H    3.80573633  -0.41320102   2.10504770
H    3.10316034   0.88021478   1.75098869
O    1.80346000  -1.14871191  -2.75354223
H    2.53897280  -0.72636034  -2.30983973
H    2.14593773  -1.38276881  -3.61618829
O    2.16737019   2.46849164   1.96773590
H    2.48618107   3.25162371   2.41639571
H    1.29800632   2.31671474   2.33841376
O    0.11277024  -3.22445252   2.01148382
H    0.15399013  -4.12685097   2.32804315
H    0.24277217  -3.29568543   1.06583207
O   -0.97650387  -0.75211065   2.47695027
H   -1.83240401  -0.84583873   2.05876151
H   -0.64280416  -1.64676548   2.54380145
H    0.26395826   1.64401782  -0.96120284
