49
Energy:  -1223.40346088
O   -0.30297224   0.08523191  -0.01359649
H    0.51871706   0.08365337   0.47737811
H   -0.80342065   0.81145328   0.35840587
O   -1.82292387   2.16619616   0.81220306
H   -1.13628488   2.78372736   1.06402434
H   -2.10045229   1.76663162   1.63655614
O   -2.18346991  -2.81279079  -1.17203012
H   -1.23394120  -2.92986694  -1.14169440
H   -2.52222029  -3.66727542  -1.43911820
O    1.03103514   2.28797410  -1.39088902
H    0.92005755   2.77762350  -0.57592933
H    1.87850845   1.85318600  -1.29612541
O    0.65185949   1.51554605   3.27089491
H    0.90478907   1.64590005   4.18482396
H   -0.23067514   1.14770473   3.31625176
O   -1.53352855   1.93438506  -1.92742746
H   -1.86543989   2.17339384  -1.06201339
H   -2.09494527   1.21192251  -2.20865865
O   -2.34377090  -0.59531846  -2.80738291
H   -2.34582228  -1.34406164  -2.21105139
H   -3.00092463  -0.81316650  -3.46838446
O    0.50838304  -3.03649850  -0.95366014
H    0.81863031  -3.00444306  -0.04870106
H    1.14805712  -2.52115419  -1.44505526
O    0.23831100   0.36120603  -2.99822510
H    0.93153522  -0.27949649  -2.83956726
H   -0.55111846  -0.16542287  -3.12350471
O    3.24138537   0.72469330  -0.83561886
H    4.14879712   1.00418949  -0.71430256
H    2.95987710   0.43943932   0.03364238
O   -1.59792338  -1.74929617   1.43090260
H   -1.15016637  -1.14346654   0.84038083
H   -2.12804919  -2.29908653   0.85390257
O    1.97230268  -0.09258248   1.45027892
H    1.79964201  -1.00859474   1.66786037
H    1.66520099   0.39728403   2.21313618
O    2.24438822  -1.35486616  -2.33560433
H    2.74987608  -0.71570344  -1.83342419
H    2.87686316  -1.73588866  -2.94472595
O    0.62279971   3.36174209   1.17378967
H    0.86650684   4.25071854   1.43178104
H    0.78450554   2.83237194   1.95471880
O    0.97584549  -2.65121003   1.76835487
H    0.03285170  -2.49061863   1.80306739
H    1.10927899  -3.41843370   2.32494735
O   -1.91883318   0.48130644   3.05215770
H   -1.93205992  -0.36458090   2.60435024
H   -2.61634566   0.41835588   3.70464940
H   -0.07462913   1.50736875  -2.07087407
