49
Energy:  -1224.63860082
O   -0.34904540   0.32339580   0.59488935
H   -0.01513424  -0.42099421   1.09550768
H   -1.29566514   0.18531105   0.56209437
O   -2.89560126   1.49649867  -1.66350328
H   -3.61149991   1.97380259  -2.08290992
H   -2.62435393   0.84969141  -2.31488421
O   -2.15274050  -2.44991236  -1.24016746
H   -1.32861369  -2.76512105  -0.86910099
H   -2.72198606  -3.21940564  -1.24861932
O    1.95137047   1.91166171  -0.47712680
H    2.64957884   1.26732215  -0.36066462
H    1.72872088   2.18761428   0.41197904
O    1.02793150   2.16325238   2.07263153
H    1.63639397   1.59678358   2.54709794
H    0.36359005   1.56651139   1.72798318
O   -0.40786635   2.62607309  -1.36391184
H   -0.40671389   3.31555634  -0.69995147
H   -1.32235944   2.34910638  -1.42068922
O   -1.71085299  -0.51021595  -3.13617195
H   -1.88529909  -1.25833297  -2.56510160
H   -1.89689920  -0.83286708  -4.01794000
O    0.29375461  -3.24924956  -0.22616065
H    0.98602492  -2.78805582  -0.69975753
H    0.59199890  -4.15808898  -0.19020101
O    0.71971864   0.43749440  -2.26516409
H   -0.09213017   0.11312915  -2.65493395
H    1.21798681  -0.35260770  -2.05612020
O    3.65588811  -0.13907784   0.20216889
H    4.60286295  -0.00730536   0.24806553
H    3.37222435  -0.16213877   1.11608076
O   -2.96086143  -0.37296729   0.40459640
H   -3.18173707   0.33142035  -0.20473426
H   -2.79363241  -1.13105488  -0.15537638
O    2.60425885  -0.11087796   2.74022658
H    2.99124174  -0.29555515   3.59601302
H    1.90072454  -0.75379679   2.65119449
O    2.21248764  -1.73820413  -1.49935786
H    2.78308391  -1.28694219  -0.87725304
H    2.80875189  -2.08974557  -2.16050793
O   -0.21373649   4.28685009   0.75924978
H   -0.26862056   5.17976948   1.09971204
H    0.19255597   3.78510502   1.46593937
O    0.50093989  -1.75657067   2.08957523
H    0.43961094  -2.40703590   1.39002852
H   -0.36266770  -1.76583883   2.50228322
O   -2.11851227  -1.51603892   2.81283175
H   -2.74015732  -1.55342219   3.53973737
H   -2.59999027  -1.08407217   2.10727132
H    0.72099392   1.65085437  -1.33122389
