49
Energy:  -1231.82505499
O    0.15316743   0.27124429  -0.10859008
H    0.85293577   0.35503515   0.53912530
H   -0.63734361   0.12197708   0.41010390
O   -3.09029766   0.68718218  -1.49838389
H   -3.93171840   0.98240694  -1.84635707
H   -3.01365461  -0.22019368  -1.79338684
O   -2.47492303  -2.64356828   0.49683783
H   -1.56859166  -2.74894265   0.78613275
H   -2.95206643  -3.34339562   0.94271641
O    1.85652800   0.97813581  -2.32838057
H    1.80589117   1.84429407  -1.92410636
H    2.53851754   0.52247686  -1.83492638
O    0.82194195   2.99581366   1.71507357
H    1.02687673   3.74247229   2.27786524
H    0.11796540   2.53634532   2.17282647
O   -0.69794009   1.46428812  -2.57459000
H   -0.40971929   2.24558480  -2.10264074
H   -1.56592144   1.27514449  -2.21812834
O   -2.40148148  -1.88590238  -2.13983521
H   -2.43645646  -2.25540600  -1.25752253
H   -2.80817533  -2.55124320  -2.69495101
O    0.08304540  -2.64748128   1.29233974
H    0.39703648  -2.06262763   1.98196838
H    0.71997556  -2.54789382   0.58478468
O    0.17141005  -1.02719945  -2.65750204
H    0.70631155  -1.58512773  -2.09285324
H   -0.71706066  -1.37020482  -2.56159081
O    3.56885519  -0.37993575  -0.65838863
H    4.52435689  -0.32914295  -0.63253471
H    3.28561897   0.00301250   0.17188827
O   -2.30654208   0.05223221   1.08733369
H   -2.69992459   0.41230288   0.29245561
H   -2.47124451  -0.88903432   1.03145636
O    2.31407837   0.67526558   1.52597081
H    1.96381355   0.16351809   2.25512163
H    1.98701068   1.56220401   1.67629973
O    1.77823219  -2.44437637  -0.92929850
H    2.49694713  -1.82379464  -0.80863782
H    2.20854529  -3.26887413  -1.15571830
O    0.84251961   3.27102410  -1.09463231
H    1.00400905   4.20344837  -1.23863918
H    0.77941459   3.18246572  -0.14362915
O    0.76585209  -0.76042364   3.26270373
H    0.10569795  -0.07349580   3.35521591
H    0.89559086  -1.08991702   4.15199211
O   -1.00062419   1.37869926   3.07901607
H   -1.57304585   0.96512454   2.43285723
H   -1.59482659   1.68909516   3.76225083
H    0.41716408   0.42365837  -2.42912970
