49
Energy:  -1228.81531328
O    0.02436887  -0.05818766   0.12232953
H    0.69899784  -0.02830211   0.80072060
H   -0.79843227  -0.13519118   0.60534153
O   -3.22918406   1.25350438  -0.97996420
H   -4.07101542   1.65461216  -1.19598356
H   -3.08452636   0.61054115  -1.67415746
O   -2.35169183  -2.60550096  -0.74824817
H   -1.41517521  -2.79735911  -0.69967950
H   -2.77610566  -3.45979286  -0.66893795
O    1.77213417   1.93618008  -1.23415909
H    1.70872347   2.46016153  -0.43562645
H    2.47298912   1.30936923  -1.05487624
O    0.80016690   1.74756274   3.26041745
H    1.05311356   2.05265762   4.13171932
H   -0.05649463   1.34007476   3.38815323
O   -0.78264354   2.44115502  -1.24511324
H   -0.55410578   2.86676482  -0.41876063
H   -1.67836924   2.12974744  -1.11498779
O   -2.33503639  -0.68220909  -2.71359102
H   -2.37624292  -1.41885157  -2.10376175
H   -2.72667078  -1.01647055  -3.52051333
O    0.36883882  -2.62987174  -0.56080544
H    0.24892638  -1.71509713  -0.30577550
H    0.97350162  -2.59508319  -1.30202370
O    0.16986948   0.49773520  -2.74877988
H   -0.67882833   0.06065491  -2.81881343
H    0.80920249  -0.21423204  -2.77302441
O    3.53328525  -0.06690076  -0.62313637
H    4.48048070   0.01603578  -0.51279982
H    3.19410326  -0.14878523   0.26820103
O   -2.49374023  -0.45265708   1.06817121
H   -2.90289556   0.18776494   0.48620609
H   -2.59423959  -1.28887446   0.61333912
O    2.18176012  -0.11553684   1.75548873
H    2.01423099  -1.00987033   2.05269816
H    1.84047634   0.43853303   2.45746010
O    2.07086411  -1.48359539  -2.49684559
H    2.68434956  -1.09321080  -1.87437686
H    2.62497271  -1.81921162  -3.20151378
O    0.72107284   3.28507874   0.96074540
H    0.85644142   4.19353170   1.23022717
H    0.72856055   2.78838526   1.77895770
O    1.47472414  -2.73248623   1.99043391
H    1.12546906  -2.93193443   1.12182977
H    1.59889659  -3.58800264   2.40141411
O   -1.60604783   0.52223057   3.49418303
H   -2.02330639   0.13418241   2.72506291
H   -2.19578227   0.31279514   4.21846331
H    0.36768896   1.55694352  -1.71872978
