49
Energy:  -1226.83192939
O    0.31691972  -0.05819151   0.40454825
H    1.20845532  -0.12861277   0.74577685
H   -0.24008866  -0.07704913   1.18276282
O   -3.36469505   1.26488420  -0.89778926
H   -4.22206444   1.65916107  -1.05808691
H   -3.20768511   0.71237440  -1.66349981
O   -2.27695362  -2.62086911  -1.19348882
H   -1.37545163  -2.75604852  -0.90150847
H   -2.66055234  -3.49780343  -1.20185998
O    1.68822779   2.12968285  -0.82034734
H    1.86832159   2.36721724   0.08925449
H    2.42716616   1.57703841  -1.07487839
O   -0.66916763   2.49723648   2.29079341
H   -1.19016275   3.06878013   2.85482692
H   -0.86517031   1.61247039   2.59902021
O   -0.91041298   2.38889673  -0.47945905
H   -0.87069433   2.52236350   0.46755780
H   -1.80831687   2.10079218  -0.64376429
O   -2.42156293  -0.41900196  -2.83894031
H   -2.39678184  -1.24445336  -2.35494885
H   -2.75976241  -0.65701838  -3.70219065
O    0.29565862  -2.62764805  -0.29070652
H    0.21630960  -1.69979785  -0.06928025
H    0.87983824  -2.64435615  -1.04878756
O    0.02131032   0.76174622  -2.34076468
H   -0.83490330   0.41933303  -2.59744209
H    0.61724534   0.01982781  -2.44396533
O    3.60984064   0.14785864  -1.11104976
H    4.55368746   0.24812298  -1.23487263
H    3.51333246  -0.09880612  -0.19122667
O   -2.87032361  -0.84249994   0.86345031
H   -3.17569211  -0.08697611   0.36128932
H   -2.78554514  -1.54252112   0.21613677
O    2.77344326  -0.30486725   1.47037106
H    2.40774720  -0.96150179   2.06310146
H    2.67810973   0.52306460   1.94119186
O    1.76310214  -1.37298937  -2.45457861
H    2.51364718  -0.94746247  -2.04004171
H    2.10547252  -1.71028437  -3.28237476
O    2.04845737   2.39609678   1.91228924
H    2.51079429   3.09761375   2.37092893
H    1.13507308   2.49495175   2.18096875
O    0.96825637  -2.28381207   2.47482853
H    1.11829766  -3.03621429   3.04720110
H    0.79005570  -2.66729677   1.61609932
O   -1.01580421  -0.19408860   2.73526159
H   -1.79217327  -0.51637532   2.27742516
H   -0.51285219  -0.98256452   2.93916561
H    0.25031931   1.69050120  -1.14821747
