49
Energy:  -1226.95261106
O   -0.19323863   0.17695533  -0.01093823
H    0.00141958  -0.76016074  -0.02332793
H   -0.00901047   0.44846531   0.88826929
O   -3.01171308   1.39232222  -1.99769248
H   -3.72903042   1.80565595  -2.47815363
H   -2.67366219   0.72676545  -2.59684826
O   -2.14805826  -2.24418882  -1.50685631
H   -1.35442038  -2.57349916  -1.08504420
H   -2.59374708  -1.74452832  -0.82280023
O    1.87913050   2.09197102  -0.85485455
H    1.57766813   2.68254062  -0.16450693
H    2.46656270   1.48172191  -0.40903925
O    0.13946931   1.11543335   2.50043702
H    0.93699687   0.66770142   2.78278035
H   -0.57289658   0.57659586   2.84456033
O   -0.56573941   2.56011281  -1.64720551
H   -0.59054748   3.03644781  -0.81731312
H   -1.45618933   2.22742342  -1.75967130
O   -1.62731644  -0.48381610  -3.45800658
H   -1.81527812  -1.18768855  -2.83714764
H   -1.83750608  -0.85656498  -4.31422526
O    0.26357141  -2.47131252  -0.14621582
H    0.49200803  -2.68456537   0.75853375
H    1.10613663  -2.37220645  -0.58949191
O    0.79621825   0.56690418  -2.71142918
H    0.00038002   0.16904188  -3.06438663
H    1.33758953  -0.17582850  -2.44403967
O    3.44574616   0.19965753   0.40439175
H    4.36732807   0.41629524   0.54576624
H    3.12343402  -0.05399168   1.26926678
O   -2.80677501  -0.29498385   0.36460815
H   -3.32611843   0.28236645  -0.19501753
H   -1.89827168  -0.06924926   0.16486474
O    2.34622680  -0.50758106   2.84609092
H    2.83765513  -0.58691010   3.66367085
H    1.78922888  -1.28572974   2.82441600
O    2.40554485  -1.40640361  -1.57642455
H    2.89298719  -0.91758015  -0.91333825
H    3.07966932  -1.84850319  -2.09250206
O    0.23418143   3.41525581   0.92819073
H    0.18413184   4.24860116   1.39644539
H    0.12478624   2.75079387   1.60845161
O    0.46070958  -2.49458063   2.62758025
H    0.35454734  -3.32607727   3.08972174
H   -0.37381946  -2.04258433   2.75204900
O   -1.79399575  -0.86806830   2.88061632
H   -2.45505137  -0.93600681   3.56954424
H   -2.29704323  -0.72936753   2.07815936
H    0.65676107   1.66344639  -1.72647418
