49
Energy:  -1226.13510355
O    0.10552123  -0.13087206   0.03831521
H    0.71550907  -0.21968032   0.77061282
H   -0.76077712  -0.22145504   0.43524562
O   -2.97392866   1.34422388  -1.18274387
H   -3.77773782   1.79370556  -1.44368235
H   -2.82741206   0.69551419  -1.87117721
O   -2.49083686  -2.53180594  -0.96371623
H   -1.55686193  -2.73799687  -1.00123937
H   -2.92429860  -3.38497660  -0.94267821
O    2.04313522   1.73655742  -1.22245283
H    1.95935083   2.31441115  -0.46396942
H    2.65345817   1.05573966  -0.93921279
O    0.62268665   1.78074388   3.12597124
H   -0.16594485   1.25532057   3.26096217
H    0.85846728   2.08886606   4.00101413
O   -0.46777006   2.40371461  -1.42729432
H   -0.24924006   2.85863321  -0.61395211
H   -1.37827036   2.13146992  -1.31282215
O   -2.13337867  -0.61183041  -2.90842386
H   -2.28396620  -1.35235537  -2.32090533
H   -2.48326580  -0.89948873  -3.75166969
O    0.19391131  -2.57410675  -1.12769994
H    0.22930806  -1.74045673  -0.65865137
H    0.95902583  -2.55864302  -1.70267167
O    0.46316119   0.39365161  -2.84585092
H   -0.38654262  -0.03789422  -2.93531310
H    1.09946877  -0.32082925  -2.87520400
O    3.56345962  -0.36997906  -0.33263809
H    4.49848903  -0.37258418  -0.12783314
H    3.13158041  -0.46542867   0.51624445
O   -2.45841899  -0.42461241   0.88250362
H   -2.79257284   0.25120777   0.29272389
H   -2.60375337  -1.24604233   0.41307561
O    2.00911726  -0.31446571   1.94742320
H    1.60883826  -1.04378939   2.42081050
H    1.73529670   0.46478473   2.43118233
O    2.38273457  -1.55952972  -2.55362736
H    2.89944456  -1.27597224  -1.79941400
H    3.02473749  -1.93220576  -3.15792586
O    0.91347812   3.27529999   0.81749465
H    1.09337860   4.17747544   1.08196981
H    0.77540264   2.80687093   1.64074506
O    0.32490187  -1.99292901   3.25766426
H    0.16333460  -2.76153956   3.80480748
H   -0.39783764  -1.39860135   3.45929284
O   -1.54892345   0.06561964   3.42901578
H   -2.26893526   0.15029892   4.05403119
H   -1.97774187  -0.10753985   2.59094514
H    0.65595233   1.43946309  -1.81288225
