49
Energy:  -1223.56642897
O   -0.03934607   0.13886059   0.06060572
H    0.80197212   0.10963674   0.51619492
H   -0.33734793  -0.77068690   0.04835377
O   -3.22629221   1.51931555  -0.12145987
H   -4.09671780   1.88771702  -0.27269308
H   -3.26989319   0.63925180  -0.49538311
O   -1.08759479  -2.33252341   0.13452378
H   -0.25509777  -2.75655012  -0.07375945
H   -1.13899696  -2.36098658   1.08991873
O    1.07320734   3.46502732  -0.24478035
H    1.03435562   3.21560930   0.67853598
H    1.42538206   4.35506282  -0.23832781
O    1.30033278   1.42542613  -2.17251017
H    1.87701925   0.71176059  -1.89984542
H    1.52447829   2.15103863  -1.58986351
O   -1.06964082   2.37122505  -1.60080503
H   -0.54109036   2.95507163  -1.05675591
H   -1.84152524   2.18006326  -1.06799789
O   -2.95704267  -0.95480582  -1.35472307
H   -2.41701719  -1.55479263  -0.84031064
H   -3.61299089  -1.51641573  -1.76770987
O    1.50286293  -2.87725006  -0.80935651
H    2.06161008  -2.10241400  -0.86987548
H    2.09638472  -3.58131228  -0.54809014
O   -0.85933362   0.06030381  -2.81722688
H   -1.65339289  -0.30651281  -2.42845022
H   -0.35634990  -0.70304906  -3.10100780
O    2.95256927  -0.52563007  -1.05074197
H    3.87731126  -0.48266183  -1.29413019
H    2.92748251  -0.21174192  -0.14681900
O   -1.48688691   1.02278585   2.10594514
H   -2.29968622   1.35547718   1.72528043
H   -0.97784551   0.71697243   1.35522093
O    2.27087937   0.29980810   1.46154079
H    2.11258544  -0.38691597   2.10929455
H    1.98543122   1.10585916   1.89169530
O    0.56820034  -2.16404293  -3.31323053
H    0.89602295  -2.57319222  -2.51238033
H    0.79026161  -2.78414542  -4.00777610
O    0.83221478   2.53349062   2.35133871
H    0.94948942   3.00218350   3.17765917
H   -0.03044131   2.12566950   2.42708994
O    1.44274636  -1.66567515   3.12971858
H    0.48806690  -1.73278734   3.14746476
H    1.73172675  -2.14890839   3.90380373
O   -1.30120693  -1.64616112   2.84872275
H   -1.95866600  -1.94481914   3.47704019
H   -1.47939118  -0.71191096   2.74074659
H   -0.20614329   1.22088113  -2.17066413
