49
Energy:  -1232.04070700
O   -0.02587380   0.20724701   0.05881617
H    0.19701685   0.60707099   0.89946615
H   -0.93125964  -0.08486590   0.16454392
O   -2.91246429   1.45128888  -1.52149379
H   -3.70689389   1.89101252  -1.82440728
H   -2.70359772   0.82733370  -2.21668192
O   -2.31800070  -2.47200518  -1.43048105
H   -1.51394515  -2.79317364  -1.02234216
H   -2.85018590  -3.25662708  -1.56231142
O    2.02974824   2.07630864  -1.10119331
H    1.87672744   2.69637913  -0.38822132
H    2.66286781   1.45283944  -0.74527532
O    0.51416210   1.31127778   2.46363807
H    1.29109519   0.78086090   2.64045646
H   -0.20720932   0.81786436   2.85402035
O   -0.46286567   2.68727803  -1.56523498
H   -0.33741829   3.17092874  -0.74879343
H   -1.35724340   2.35075229  -1.50982073
O   -1.87588647  -0.42934269  -3.23262423
H   -2.00091126  -1.21063726  -2.69394117
H   -2.11034337  -0.70811581  -4.11780634
O   -0.03674746  -3.13818510  -0.15981762
H    0.17163238  -2.94268665   0.75374138
H    0.71666315  -2.81309527  -0.65268770
O    0.63096333   0.65323119  -2.81907488
H   -0.21858995   0.29865605  -3.08131055
H    1.13441532  -0.11155197  -2.54001457
O    3.63123350   0.15025876   0.06523836
H    4.58762263   0.12426400   0.09483465
H    3.35708870  -0.09184264   0.94980796
O   -2.61337154  -0.48355554   0.45903988
H   -2.92242873   0.23946094  -0.08681969
H   -2.66888703  -1.25291102  -0.10774229
O    2.56673014  -0.53878991   2.53164164
H    3.10433722  -0.72720832   3.30086786
H    1.94399425  -1.26455580   2.49046235
O    1.72056533  -1.33142746  -1.30598343
H    1.08486877  -0.89442658  -0.73928071
H    2.57270095  -1.06042218  -0.96443860
O    0.69201801   3.54735307   0.83646500
H    0.78301683   4.38678629   1.28735628
H    0.59812900   2.90569936   1.54052268
O    0.50802399  -2.37499756   2.46436762
H    0.41684123  -3.15050971   3.01799065
H   -0.23801445  -1.82326656   2.69942377
O   -1.51194289  -0.55904558   2.99439326
H   -2.15971747  -0.55279293   3.69907819
H   -2.03155706  -0.54480899   2.19063317
H    0.71069816   1.76351659  -1.83833515
