49
Energy:  -1225.43790658
O    0.25273178   0.45706805   0.14999514
H    1.07946138   0.22916268   0.57521174
H   -0.41213996  -0.01957582   0.64697405
O   -3.20169883   0.66827004  -0.34134705
H   -4.11026974   0.92505715  -0.18389505
H   -3.22667305   0.19539633  -1.17321157
O   -2.26325483  -3.06298613  -1.72364553
H   -1.51790278  -3.08813566  -1.12360414
H   -2.56361844  -3.97058266  -1.77141682
O    1.25635071   2.38120602  -1.70785258
H    1.29305701   2.87880119  -0.89097833
H    1.99379124   1.77350811  -1.65202627
O    1.34319000   1.80212438   2.91396477
H    1.70204519   2.19009085   3.71204799
H    0.73764429   1.12941682   3.22543034
O   -1.28810224   2.49789215  -1.11963290
H   -0.93108059   2.93047014  -0.34397598
H   -1.99564977   1.94786054  -0.78336877
O   -2.86847250  -0.61968766  -2.72625387
H   -2.69469485  -1.51618658  -2.43933429
H   -3.41862835  -0.71877101  -3.50326280
O   -0.13402823  -2.64954395  -0.01460452
H    0.44174695  -2.70708044   0.74789422
H    0.40558271  -2.24298635  -0.69266263
O   -0.39509917   0.57102404  -2.67662977
H   -1.26422427   0.19582174  -2.81832179
H    0.17083476  -0.18557392  -2.52329953
O    3.17730129   0.41185557  -1.36770335
H    4.10014425   0.52033615  -1.59753956
H    3.18101387   0.26748959  -0.42145998
O   -1.72363426  -0.87406563   1.42719634
H   -2.36850943  -0.43156816   0.87532330
H   -1.43221103  -1.62085830   0.90412365
O    2.66814433  -0.01995615   1.29302771
H    2.42633082  -0.85504818   1.69350166
H    2.42740835   0.63773062   1.94550465
O    1.32169098  -1.49393864  -2.10917918
H    2.05809665  -0.92677564  -1.88056452
H    1.66139074  -2.06096516  -2.80150630
O    0.56515363   3.49292354   0.76282777
H    0.67432425   4.37190152   1.12574832
H    0.77745981   2.90567468   1.48829087
O    1.40062315  -2.24724821   2.32123432
H    0.85396033  -1.72826352   2.91118899
H    1.75587928  -2.94359307   2.87361893
O   -0.20424495  -0.40172748   3.63928565
H   -0.87226137  -0.53106459   2.96604140
H   -0.67130533  -0.51922330   4.46649855
H   -0.13161576   1.75479832  -1.78120737
