49
Energy:  -1228.37746478
O    0.17486533   0.06470697  -0.00955405
H    0.91824823   0.09488522   0.59269423
H   -0.56410310   0.38953532   0.50488161
O   -2.89177421   1.40625262  -0.94016531
H   -3.71827532   1.78899686  -1.23450287
H   -2.79989142   0.60637913  -1.45784456
O   -2.27385641  -2.78346125  -0.39582966
H   -1.32381547  -2.88324568  -0.33502556
H   -2.59645718  -3.66548429  -0.58075112
O    2.04216318   1.69327702  -1.67323759
H    2.02294547   2.40310149  -1.03135617
H    2.68802458   1.07616178  -1.32934272
O    0.48682799   2.24903912   2.53749376
H    0.38047074   2.66769931   3.39168556
H   -0.37940903   1.89656568   2.33346494
O   -0.47180525   2.38203160  -1.78976279
H   -0.16263721   2.99165105  -1.11967989
H   -1.35749293   2.14869731  -1.51165438
O   -2.22304652  -0.84603881  -2.36791177
H   -2.27944335  -1.55494594  -1.72720753
H   -2.65320417  -1.19380635  -3.14909932
O    0.38559348  -2.62618198  -0.06293615
H    0.30660491  -1.67480804  -0.13279521
H    0.61853955  -2.78108010   0.85247335
O    0.32193100   0.15140829  -2.93861318
H   -0.53482466  -0.25536607  -2.80924465
H    0.94832882  -0.55875235  -2.79886529
O    3.65490008  -0.14000629  -0.40903561
H    4.60462203  -0.18487714  -0.29837100
H    3.30954968  -0.12854535   0.48361975
O   -2.21371518  -1.68095423   2.14944450
H   -2.95219213  -1.98341518   2.67802848
H   -2.34700400  -2.09019865   1.29446792
O    2.08550603   0.03208183   1.88291439
H    1.70674964   0.80380725   2.30388389
H    1.66651944  -0.70947623   2.31969092
O    2.07238114  -1.71493702  -2.09202181
H    1.64633038  -2.33033539  -1.49536660
H    2.78290196  -1.33356716  -1.57631933
O    1.10264554   3.55562185   0.17588179
H    1.37063301   4.45671642   0.35600159
H    0.93101209   3.17919557   1.03906025
O    0.50301490  -2.11936909   2.71077576
H   -0.44151941  -1.97616736   2.65094222
H    0.61427449  -2.66409760   3.48995737
O   -1.79438711   0.99353403   1.58130516
H   -2.08037691   0.12635513   1.86843309
H   -2.37331005   1.20706653   0.84953748
H    0.63400950   1.32815276  -2.12508366
