49
Energy:  -1228.28778830
O   -0.20638681   0.29943994  -0.02570936
H   -0.08989581   0.69538994   0.83793715
H   -1.09185109   0.55143146  -0.28778785
O   -2.56758416   1.18510020  -1.03223484
H   -3.09249023   0.65900671  -0.42896782
H   -2.59368231   0.70121839  -1.85770994
O   -2.26169948  -2.16401945  -1.33310884
H   -1.41925514  -2.45685372  -0.98559268
H   -2.73127105  -1.82568361  -0.57070262
O    2.03530164   2.01332911  -1.10195763
H    1.88631584   2.61992115  -0.37664309
H    2.55829113   1.30781733  -0.72121236
O    0.23972196   1.33360205   2.41851312
H    1.02012052   0.80159927   2.57402186
H   -0.47866346   0.81921543   2.78669871
O   -0.39838293   2.77819148  -1.63266579
H   -0.23111310   3.31015269  -0.85467483
H   -1.28637476   2.44328183  -1.50801468
O   -1.92886821  -0.31050603  -3.25820096
H   -2.05893933  -1.07670140  -2.69940045
H   -2.40581092  -0.51612581  -4.06223952
O    0.26625868  -2.32709210  -0.23999367
H    0.07724756  -1.39193125  -0.16265783
H    0.92726442  -2.38206277  -0.93012517
O    0.60873359   0.66962081  -2.85400120
H   -0.24377468   0.32952536  -3.12565645
H    1.14460969  -0.11087326  -2.71294214
O    3.40272555  -0.10800023  -0.01935970
H    4.34709756  -0.02465763   0.11272884
H    3.05281992  -0.28374630   0.85408819
O   -3.37911926  -0.74991566   0.81152410
H   -4.25551539  -0.94248060   1.14481139
H   -2.82680620  -0.71865289   1.59268015
O    2.31247748  -0.50159539   2.50332114
H    2.86177868  -0.58635646   3.28262571
H    1.73312839  -1.26293557   2.53410421
O    2.18723794  -1.46746490  -2.10382776
H    2.72411787  -1.09673745  -1.40343291
H    2.81349490  -1.90618729  -2.67963740
O    0.76051077   3.55345755   0.81264870
H    0.85465907   4.39436934   1.26012528
H    0.53277524   2.93594141   1.50766107
O    0.40686426  -2.49027434   2.46313070
H    0.36341552  -2.58108522   1.51123919
H    0.45758551  -3.38926311   2.78790505
O   -1.62716880  -0.67507506   2.98322988
H   -1.97232156  -0.81551338   3.86492058
H   -0.98962145  -1.37838129   2.86024381
H    0.72600194   1.77246032  -1.86940560
