49
Energy:  -1228.06232498
O   -0.43339556   0.18099865   0.00669392
H   -0.10082676   0.54434550   0.82743073
H   -1.38317559   0.15560472   0.12290444
O   -0.64684467   1.79346027  -2.48720659
H   -1.16272727   2.28573513  -1.84864378
H   -1.25068823   1.13191202  -2.82478429
O   -2.54065489  -2.40993733  -1.27898104
H   -1.67869450  -2.62201900  -0.92082257
H   -2.98240742  -3.25543260  -1.35787522
O    1.64495859   1.88319048  -1.19405465
H    1.34041224   2.51233907  -0.54010098
H    2.29073833   1.34945665  -0.73109832
O    0.34084730   1.24376574   2.39462958
H    1.12861575   0.75599651   2.63490837
H   -0.37443252   0.76684718   2.81552780
O   -1.90106882   3.14464429  -0.52172792
H   -2.41285245   3.95294704  -0.55264751
H   -1.14246743   3.36149559   0.02024190
O   -1.64977470  -0.71858627  -3.27855131
H   -2.03740836  -1.32200789  -2.64463149
H   -2.06817032  -0.94244254  -4.10985470
O   -0.03229605  -2.47049570  -0.20012536
H   -0.12690085  -1.52214222  -0.11120140
H    0.83661632  -2.59010095  -0.58342383
O    1.01079815  -0.20149299  -2.67137979
H    0.22973739  -0.63762167  -3.01192010
H    1.54260575  -0.91010459  -2.30905103
O    3.35522646   0.13356445   0.10967194
H    4.27523581   0.39474508   0.14966335
H    3.11788095  -0.04911852   1.01880663
O   -3.05251309  -0.41043278   0.57569503
H   -3.81896147   0.11030924   0.33566069
H   -3.06728684  -1.15213233  -0.02919782
O    2.52780468  -0.40789960   2.66615600
H    3.03272087  -0.56356430   3.46431638
H    1.89008806  -1.12133899   2.64262734
O    2.48186869  -2.06631047  -1.31919857
H    2.91355299  -1.40429503  -0.77918369
H    3.18948148  -2.64779367  -1.59739504
O    0.51990801   3.44435206   0.78382854
H    0.86969501   4.22357521   1.21590745
H    0.45457362   2.79210398   1.48134966
O    0.48214812  -2.13844365   2.48920256
H    0.29081908  -2.48490776   1.61765929
H   -0.33659990  -1.72978493   2.77006120
O   -1.72783230  -0.52413685   3.02990708
H   -2.31880819  -0.64594100   3.77297040
H   -2.30244992  -0.52031304   2.26437993
H    0.64956455   1.18142496  -2.05092635
