49
Energy:  -1223.86651803
O    0.15773504  -0.44159589   0.88780035
H    0.86540153  -0.86573607   1.37313023
H   -0.51389332  -0.26637253   1.54692399
O   -3.35536269   1.54635547  -1.37668913
H   -4.07238494   2.07455688  -1.72756548
H   -3.21544166   0.86474788  -2.03400568
O   -3.15817751  -2.45359665  -1.00307989
H   -2.24318126  -2.65329319  -0.80525417
H   -3.61320296  -3.28985934  -0.90384074
O    1.76595201   1.45532593  -0.84673119
H    2.46796525   0.81666189  -0.97130041
H    1.96293161   1.86745696  -0.00555410
O   -0.50885522   2.63431864   2.06410694
H   -0.95024220   1.85575601   2.40359127
H   -0.95183385   3.36707358   2.49197605
O   -0.77592509   2.03048540  -0.60937703
H   -0.77721618   2.30466883   0.30771273
H   -1.70220859   1.96709569  -0.84221275
O   -2.58531113  -0.59236195  -2.91376446
H   -2.84164953  -1.30435792  -2.32760389
H   -2.85124496  -0.89018127  -3.78371543
O   -0.52148433  -2.67182620  -0.50949804
H   -0.33376648  -1.92460646   0.05853058
H    0.26493720  -2.76856573  -1.04654040
O   -0.01118300   0.06165503  -2.17161236
H   -0.87508743  -0.21214157  -2.47972990
H    0.52339794  -0.73083724  -2.22071506
O    3.71332935  -0.45870227  -0.93072477
H    4.54722283  -0.33990192  -1.38541146
H    3.92108956  -0.31627596  -0.00726265
O   -3.48991054  -0.28108352   0.70176758
H   -3.60002991   0.40310602   0.04147201
H   -3.48038944  -1.09748342   0.20213531
O    4.05440172   0.34180297   1.71498059
H    4.81948622   0.56570169   2.24483614
H    3.46734727   1.09155566   1.81229359
O    1.73498531  -2.07070844  -2.07925692
H    2.47963736  -1.67604891  -1.62541882
H    2.13051362  -2.64206502  -2.73754322
O    2.24109705   2.46324410   1.64906566
H    2.54598934   3.36186368   1.77458613
H    1.33159358   2.47454804   1.94723928
O    2.18385794  -1.60136726   2.24213002
H    2.93779774  -1.01392580   2.18998444
H    2.50651645  -2.36388635   2.72242990
O   -1.77677393   0.29493430   2.69171370
H   -2.47300068   0.09374247   2.06639618
H   -2.04162575  -0.14961073   3.49698700
H    0.31277998   1.12740565  -1.15087180
