49
Energy:  -1227.01089358
O   -0.05057200   0.07018397   0.08395626
H    0.08359292  -0.50733296   0.83542537
H   -0.99841095   0.19817370   0.04585386
O   -2.44427234   1.91171130  -2.17809851
H   -3.03086071   2.46233053  -2.69671629
H   -2.16479508   1.22355236  -2.78188786
O   -2.33290010  -2.03538690  -1.64409298
H   -1.62454858  -2.48156078  -1.17998217
H   -2.99658246  -2.71225058  -1.77680750
O    2.35819398   1.65739138  -0.48343278
H    2.07647012   2.28564546   0.18151858
H    2.72910879   0.92974089   0.01574537
O    0.06482925   1.58858286   2.94564507
H    0.75848702   0.96375186   3.15696703
H   -0.73379401   1.06146824   2.92150142
O    0.12766725   2.54122680  -1.50444718
H    0.12896291   3.02207805  -0.67679251
H   -0.79904234   2.43959432  -1.72150021
O   -1.28766643  -0.23894905  -3.45281472
H   -1.64961850  -0.93224775  -2.90094566
H   -1.39742151  -0.56215647  -4.34708685
O   -0.24826626  -3.21127511  -0.28955872
H   -0.04715311  -4.14688235  -0.26895690
H    0.55242192  -2.80082914  -0.61615388
O    1.22161674   0.33486850  -2.45388005
H    0.39028819   0.14098247  -2.88693074
H    1.49015353  -0.49801435  -2.06603216
O    3.31900223  -0.53681965   0.83824422
H    4.26033749  -0.52523836   1.01140788
H    2.91502549  -0.49915671   1.70520220
O   -2.76600009   0.17993158  -0.03356395
H   -2.86599411   0.88492416  -0.67326584
H   -2.78654996  -0.62228490  -0.55534769
O    1.99054529  -0.42332394   3.22987945
H    2.22966513  -0.67802109   4.12104885
H    1.31072785  -1.04756855   2.97611035
O    2.07627519  -1.97412582  -1.17948826
H    2.51986970  -1.56980021  -0.43384990
H    2.77093653  -2.43259650  -1.65222719
O    0.82105730   3.36100525   1.04749340
H    0.50107727   2.77607559   1.73429900
H    0.93423387   4.20503014   1.48458022
O   -0.04441507  -1.80509915   2.10225635
H   -0.25438519  -2.42281039   1.40184417
H   -0.89109911  -1.44547779   2.36688903
O   -2.16969865  -0.12185915   2.65119188
H   -2.90550763  -0.04402804   3.25844744
H   -2.54854762   0.05815499   1.79078488
H    1.19635892   1.43242790  -1.44081449
