49
Energy:  -1230.59371339
O   -0.12407261   0.12658078   0.03046594
H    0.06222181  -0.80298180  -0.10159334
H   -1.05155371   0.15443749   0.26548650
O   -2.91388586   1.65866675  -1.51618982
H   -3.63353751   2.16176425  -1.89727545
H   -2.69873218   1.00549171  -2.18199993
O   -2.45733904  -2.23801297  -1.23402302
H   -2.93785075  -3.06386526  -1.29154121
H   -1.57489747  -2.49210750  -0.96390326
O    2.08531469   1.89136237  -0.89795079
H    1.88188073   2.39684600  -0.11097380
H    2.70385564   1.22384569  -0.60120103
O    0.42187414   1.41176877   3.08951601
H    0.53020582   1.59537760   4.02267403
H   -0.28481220   0.76722687   3.05220652
O   -0.35725008   2.62762524  -1.43356949
H   -0.23154125   3.03634061  -0.57719289
H   -1.28164376   2.37957781  -1.44773441
O   -1.88650650  -0.32484516  -3.12090643
H   -2.10364927  -1.06102475  -2.54896195
H   -2.15551031  -0.61150956  -3.99365629
O    0.11449892  -2.55487953  -0.39745466
H    0.36509394  -2.71525287   0.51233344
H    0.94594351  -2.46446496  -0.86302630
O    0.70157914   0.56275156  -2.69780494
H   -0.16451255   0.22088215  -2.91971111
H    1.23570014  -0.21694222  -2.54606761
O    3.66776434  -0.16566450  -0.05340639
H    4.60059135  -0.09038939   0.14758930
H    3.24818801  -0.29070517   0.79780004
O   -2.76536601  -0.16092405   0.59642286
H   -3.04309444   0.55768747   0.02835926
H   -2.83061591  -0.94112745   0.04573515
O    2.31469502  -0.44067525   2.24765137
H    1.77659178  -1.22858139   2.32433678
H    1.73533795   0.27262643   2.51556544
O    2.24958651  -1.59613202  -1.89562549
H    2.84387105  -1.18069221  -1.27075151
H    2.82443243  -2.08242394  -2.48664511
O    0.70441319   3.26533009   1.06106490
H    0.85200811   4.09825186   1.50904805
H    0.55345701   2.63665243   1.76690375
O    0.45528221  -2.47788062   2.34456444
H   -0.25898913  -1.90545501   2.62452376
H    0.49436294  -3.15885595   3.01611276
O   -1.50658004  -0.60511915   3.01617607
H   -2.14557208  -0.70142650   3.72232472
H   -2.03513973  -0.44438902   2.23449690
H    0.77773097   1.61319279  -1.63786783
