49
Energy:  -1223.75520867
O   -0.04093275   0.12552319   0.00643996
H    0.13882108   0.52087571   0.85944452
H   -0.96294940  -0.12806776   0.04896973
O   -2.62882153   1.18202312  -2.25562815
H   -3.39530194   1.65405031  -2.58109698
H   -2.40539921   0.57290347  -2.95939485
O   -1.41820212  -2.66878549  -1.96086093
H   -0.49591142  -2.63785772  -1.70658708
H   -1.63770957  -3.60045670  -1.95477127
O    2.25190752   1.63739567  -1.33554213
H    2.10974134   2.27582265  -0.63666330
H    2.74434812   0.93052256  -0.91833175
O    0.67519236   1.39607068   2.30110118
H    1.49430658   0.92549107   2.45549865
H    0.06860078   1.04167329   2.95124038
O   -0.15402613   2.37535408  -2.00787408
H   -0.08282493   2.88878868  -1.20317093
H   -1.06261139   2.07446672  -2.02096886
O   -1.58546256  -0.73403798  -3.92402325
H   -1.60148503  -1.51032227  -3.36423951
H   -1.77255547  -1.06713940  -4.80167440
O   -2.58986610  -0.75128804  -0.27337974
H   -2.78232975  -0.06416607  -0.91138679
H   -2.33687642  -1.50702429  -0.80355970
O    0.83446009   0.13235234  -2.94203475
H    0.05314956  -0.09838131  -3.44457598
H    1.06993892  -0.67294142  -2.48129238
O    3.46496252  -0.53086710  -0.17729081
H    4.40572585  -0.68741999  -0.25906738
H    3.31099383  -0.48158274   0.76615847
O   -3.14141053  -0.69273861   2.43130671
H   -4.05627885  -0.92831467   2.58542261
H   -3.03621774  -0.74751821   1.48148277
O    2.89213570  -0.23155067   2.49603444
H    3.54313303  -0.10874342   3.18694160
H    2.30248715  -0.90329262   2.83853872
O    1.16452490  -1.94015924  -1.21498845
H    0.75646722  -1.30851307  -0.62275211
H    2.08927630  -1.93811759  -0.96788009
O    0.92366531   3.35968067   0.39325100
H    1.05112055   4.23869617   0.75006853
H    0.78073672   2.80713975   1.16169215
O    0.98770355  -1.85677249   3.51182172
H    0.80138868  -2.70197381   3.92066563
H    0.23572174  -1.30959824   3.73843936
O   -1.01345832  -0.00732831   3.96739204
H   -1.36420643   0.27912318   4.81069101
H   -1.78554317  -0.25003567   3.45630500
H    0.97011083   1.36827050  -2.08952487
