49
Energy:  -1224.94342110
O    3.20539437  -1.72444437   1.52747292
H    3.98958621  -2.05682052   1.96428079
H    2.65124056  -1.40493862   2.23955541
O   -0.59407718  -0.89977124  -0.13320818
H   -1.11126222  -0.11741990   0.05830648
H   -0.65981228  -1.43108797   0.66027355
O   -2.68720050   0.10729054   2.92345582
H   -3.61864138   0.13683251   3.14203535
H   -2.62582638   0.54572649   2.07478687
O    1.34477227   0.31044936  -4.05461559
H    1.65010787  -0.57770331  -3.86971875
H    0.41309887   0.20832783  -4.24900624
O   -1.63329283   1.98082520  -2.11714130
H   -1.66998178   1.29862022  -2.78757559
H   -1.88849620   2.78155553  -2.57532688
O    1.17510774  -0.51230515   3.01485409
H    0.77240954   0.12783769   3.60161056
H    0.47934029  -1.14486719   2.83595533
O   -0.87706665  -2.27878767  -2.45590200
H   -0.81625216  -1.83286763  -1.61110098
H   -1.43580911  -3.03744472  -2.28714716
O   -1.01650601  -2.02531187   2.35810374
H   -1.70286251  -1.41490634   2.62745794
H   -1.27321765  -2.86167386   2.74647162
O   -1.42687093  -0.05316535  -3.97195744
H   -1.93554258  -0.26769535  -4.75391772
H   -1.33247562  -0.88668970  -3.51091673
O    2.52652741  -0.53248112  -0.80782832
H    2.39821263  -1.18065546  -1.50038677
H    2.85835057  -1.03717961  -0.06526205
O    1.51633630   1.16813740   0.89981359
H    1.01128466   1.92773077   1.18993874
H    1.47431298   0.55688595   1.63523018
O    1.02724303   1.43402803  -1.65708585
H    0.12237905   1.73499443  -1.73998496
H    1.26515635   1.14353857  -2.53756581
O    1.84241263  -2.17397128  -2.90516536
H    2.22042787  -2.96144072  -3.29660912
H    0.91436984  -2.38174637  -2.79654702
O   -0.25691020   2.98742943   1.92038956
H   -0.16692318   3.92407453   2.09597471
H   -0.32309218   2.58610206   2.78686987
O   -2.00375341   1.35316551   0.55219410
H   -1.46390983   2.02953314   0.96125106
H   -2.10733013   1.64413963  -0.35380688
O   -0.55112458   1.39390412   4.14826434
H   -1.35727093   0.95338712   3.87936904
H   -0.67838908   1.58048031   5.07843901
H    1.67740749   0.66354265  -0.53069488
