49
Energy:  -1233.62640524
O    0.39353057  -0.20914871   0.90642695
H    1.22857416  -0.31981206   1.36105610
H   -0.25616565  -0.15619042   1.60737066
O   -3.35540465   1.47054840  -1.24757312
H   -4.14048729   1.93362045  -1.53987670
H   -3.11956839   0.90845633  -1.98558777
O   -2.33236580  -2.44855637  -1.29873654
H   -1.41749638  -2.57210870  -1.04579266
H   -2.70173605  -3.33161072  -1.30226947
O    1.68664883   2.08620702  -0.51794850
H    1.75406227   2.47014745   0.35628088
H    2.43312900   1.48989859  -0.57639042
O   -1.11922387   2.72889915   2.38365341
H   -1.74314315   3.27477956   2.86216272
H   -1.33898974   1.83297513   2.63910392
O   -0.91828162   2.30174032  -0.32165895
H   -1.02470093   2.52891038   0.60208373
H   -1.80564156   2.11088580  -0.62563057
O   -2.25801882  -0.32003345  -3.01624103
H   -2.33933079  -1.12965428  -2.51212367
H   -2.48806224  -0.57034775  -3.91103409
O    0.28396974  -2.48668187  -0.55648249
H    0.24358559  -1.70137353  -0.01068787
H    0.89061624  -2.25846424  -1.26084645
O    0.13624330   0.65094253  -2.07246362
H   -0.67179792   0.33581530  -2.47742789
H    0.78696842  -0.01893154  -2.28236215
O    3.62301079   0.14119428  -0.62774946
H    4.55578574   0.35190202  -0.66976136
H    3.49790266  -0.22022473   0.24972196
O   -3.13811304  -0.58234093   0.60719506
H   -3.37026325   0.14629777   0.03150089
H   -2.94766079  -1.30728990   0.01187264
O    2.92410128  -0.85510652   1.81743707
H    2.75983252  -1.79004417   1.69439558
H    3.31110180  -0.79232066   2.69066120
O    2.03569355  -1.30329179  -2.34919213
H    2.70776255  -0.89498136  -1.80344704
H    2.51334117  -1.63711844  -3.10856317
O    1.60624062   3.02479147   2.00708237
H    1.98544132   3.74990137   2.50372543
H    0.69622103   2.98265782   2.30088662
O    2.18052653  -3.38651121   1.22004857
H    2.23302761  -4.33499390   1.33776044
H    1.47107656  -3.26182050   0.58967977
O   -1.63875576   0.06663603   2.74542584
H   -2.25616803  -0.18773673   2.05962089
H   -1.89819880  -0.45260894   3.50654727
H    0.31722206   1.64909822  -0.89867495
