49
Energy:  -1227.39285103
O   -0.05018084   0.14434844   0.17904409
H    0.12253144   0.60044427   1.00268170
H   -0.89727507  -0.28071399   0.31315286
O   -3.11906141   1.03199186  -1.28326346
H   -3.97291473   1.39104519  -1.52460773
H   -2.86649829   0.49027372  -2.03091657
O   -2.13554266  -2.75402267  -1.48438024
H   -1.24154821  -3.09599613  -1.49212150
H   -2.68962541  -3.52860558  -1.58053354
O    1.72105169   2.27186573  -1.03942640
H    1.52484606   2.89339290  -0.33839918
H    2.42873299   1.73073884  -0.68928256
O    0.32927779   1.47346069   2.50900367
H    1.19076218   1.11056169   2.71486965
H   -0.28898842   0.88291411   2.93939127
O   -0.83946454   2.55047223  -1.44483475
H   -0.74401633   3.08967153  -0.65973246
H   -1.67870244   2.10485405  -1.32935297
O   -1.94359826  -0.58740078  -3.16151079
H   -2.00366531  -1.40562727  -2.66842945
H   -2.17427189  -0.83010482  -4.05823609
O    1.82654777  -1.20400654  -1.21817838
H    1.17458840  -0.88320999  -0.59506492
H    2.65474255  -0.83653663  -0.90948579
O    0.47877859   0.65683211  -2.70169830
H   -0.33228203   0.22433498  -2.96882889
H    1.04365023  -0.05584510  -2.40296251
O    3.58302605   0.56905705   0.05845035
H    4.53308378   0.68493747   0.04452647
H    3.37338887   0.41614559   0.97980923
O   -2.48928112  -0.93545758   0.58321349
H   -2.90267734  -0.23968350   0.07210310
H   -2.44634472  -1.68046453  -0.01624707
O    2.75889736   0.17287026   2.66299263
H    3.31754276   0.19855801   3.43983708
H    2.25529089  -0.63578787   2.75618282
O    0.44573912  -3.55461001  -1.58336631
H    1.06189615  -2.82968180  -1.47819289
H    0.99538533  -4.30674170  -1.80340909
O    0.24637192   3.67180160   0.85885670
H    0.23524771   4.51887287   1.30447803
H    0.22202976   3.02791416   1.56670433
O    1.02798695  -1.88561601   2.96768442
H    0.98097808  -2.81732873   3.18200527
H    0.13031034  -1.56992493   3.07135545
O   -1.43805681  -0.62388862   3.14107711
H   -2.09150947  -0.69926240   3.83645490
H   -1.92631383  -0.78746010   2.33418103
H    0.43919066   1.77753690  -1.72966615
