49
Energy:  -1224.73787087
O   -0.00892654   0.21287000   0.16257218
H    0.16985930   0.70175116   0.96585462
H   -0.93558434  -0.01900854   0.22396849
O   -3.03757679   1.32694249  -1.52440047
H   -3.83143127   1.70308669  -1.90458787
H   -2.75515632   0.66957222  -2.16027377
O   -2.50313064  -2.59509328  -1.18988347
H   -1.78800882  -3.08592773  -0.78502033
H   -3.20552445  -3.23688101  -1.29468467
O    1.90155784   2.18318873  -0.99661803
H    1.70432952   2.81293128  -0.30325149
H    2.55379585   1.59821648  -0.61109904
O    0.46030389   1.40806737   2.54683010
H    1.27426816   0.94734139   2.75036288
H   -0.22452938   0.87539258   2.95117253
O   -0.62556175   2.62054911  -1.47334612
H   -0.55363083   3.14203632  -0.67390326
H   -1.52075374   2.28192742  -1.45925742
O   -1.82344154  -0.64286301  -3.01366558
H   -1.99818331  -1.39794228  -2.45192502
H   -1.97264290  -0.96533611  -3.90247484
O   -0.50876218  -3.85589844   0.13118107
H   -0.03241306  -3.29149875   0.74009514
H   -0.08178499  -4.70890621   0.21055409
O    0.60587149   0.63956494  -2.69174313
H   -0.19368072   0.13536513  -2.84251003
H    1.27578282  -0.02048068  -2.51344438
O    3.65769584   0.41300388   0.16818267
H    4.58552878   0.62565653   0.26886395
H    3.37662175   0.14492781   1.04303376
O   -2.60556754  -0.46601284   0.55196543
H   -2.97200491   0.21428847  -0.01296433
H   -2.68626315  -1.27142005   0.04104539
O    2.63374927  -0.33231054   2.61342975
H    3.11274510  -0.67176358   3.36944990
H    2.03253391  -1.03755482   2.37384167
O    2.55706753  -1.05755865  -1.91447442
H    3.03962788  -0.68464795  -1.17670415
H    3.17531571  -1.66245726  -2.32447284
O    0.47954883   3.63146318   0.90364894
H    0.52095480   4.48698484   1.33096625
H    0.43514886   3.00450947   1.62558352
O    0.61793806  -1.92799274   1.72185688
H   -0.07557423  -1.70140972   2.34147990
H    0.51308976  -1.30240251   1.00500575
O   -1.44191215  -0.58669714   3.07554061
H   -2.02572704  -0.77077716   3.81141192
H   -2.02032266  -0.54956458   2.31377011
H    0.61905776   1.72858903  -1.70748715
