49
Energy:  -1227.36101136
O   -0.23852657   0.23841825   0.03929490
H   -0.18110607   0.59812639   0.92447555
H   -1.15185741  -0.03362920  -0.05042030
O   -2.48717482   1.26850948  -2.34267370
H   -3.17030683   1.66057501  -2.88659199
H   -2.00799450   0.69191372  -2.93778328
O   -1.24444824  -2.59515097  -1.88841083
H   -0.48066991  -2.63816781  -1.31306391
H   -1.48835896  -3.50950921  -2.03224549
O    1.96351494   2.19580700  -0.35148929
H    2.33006204   1.53055167   0.23101429
H    1.59974277   2.85662990   0.23776001
O    0.19280714   1.30573325   2.50657240
H    1.12547952   1.10559755   2.42720120
H   -0.15676324   0.60577150   3.05801228
O   -0.29901605   2.75106210  -1.53562453
H   -0.46864745   3.21090798  -0.71343307
H   -1.13423622   2.33918712  -1.75697968
O   -0.82631903  -0.50207329  -3.63753783
H   -0.94813256  -1.30286942  -3.12751933
H   -0.77635325  -0.80106613  -4.54546875
O    0.90033442  -2.18203058  -0.20666635
H    0.53034104  -1.30339635  -0.12100050
H    1.19794467  -2.40416873   0.67555507
O    1.26832129   0.89868377  -2.52827899
H    0.59447239   0.40559824  -2.99628131
H    1.94097808   0.24963586  -2.32212007
O    2.70055576   0.46994125   1.75215877
H    3.59242017   0.58251035   2.08100210
H    2.49381141  -0.44787722   1.92850467
O   -2.71278499  -0.73728257  -0.42449905
H   -2.88838745  -0.04198226  -1.05849677
H   -2.38190209  -1.46462670  -0.95148943
O    1.72081875  -2.05013957   2.44463429
H    2.11379358  -2.73439636   2.98647862
H    0.92483324  -1.80006041   2.91378175
O    2.92033099  -1.03380172  -1.65442181
H    2.33132616  -1.58805085  -1.14245204
H    3.64867343  -1.60923849  -1.88813457
O    0.08004230   3.66893374   1.07643046
H   -0.03534541   2.98429955   1.73536409
H   -0.04172375   4.48766054   1.55715004
O   -0.55247996  -1.07929999   3.68103335
H   -0.79517594  -1.17469052   4.60202800
H   -1.36484284  -1.23986644   3.20091169
O   -2.84336436  -1.38801106   2.25836138
H   -3.73573175  -1.62386704   2.51190474
H   -2.90878627  -1.16461000   1.32989825
H    0.96279505   1.88664069  -1.47039244
