7
Energy:    -92.55556383
C    0.00718228   0.46316671  -1.04831865
H    0.12220259  -0.40383109  -1.66474815
H    0.82798440   1.12948981  -1.21323225
H   -0.90889439   0.95766581  -1.29565092
C   -0.02123688   0.04027845   0.43220757
N   -0.04239624  -0.27458108   1.53452663
Na   0.01515825  -1.91218861   3.25521576
