7
Energy:    -94.73968288
C   -0.36989270  -0.99641747   0.47984596
H    0.43410450  -1.66174257   0.71613223
H   -1.07227139  -1.49658900  -0.15370887
H   -0.85752167  -0.69161637   1.38218368
C    0.18567481   0.24234288  -0.24707738
N    0.59932007   1.16465627  -0.78830485
Na   1.08058638   3.43936625  -1.38907076
