7
Energy:    -96.58116661
C   -0.83549479   0.16217979   0.80074235
H   -1.44117821  -0.70992456   0.93296101
H   -1.44880009   0.97642056   0.47552295
H   -0.36842166   0.41617350   1.72930520
C    0.24670351  -0.12010150  -0.25791912
N    1.05244934  -0.33027274  -1.04614071
Na   2.79474189  -0.39447504  -2.63447168
