7
Energy:    -93.80057449
C    0.38123762   0.66338702   0.90913061
H   -0.32018054   1.46081121   1.03961973
H    1.34470388   1.06948602   0.68172028
H    0.43987624   0.08897087   1.80996727
C   -0.08031236  -0.24205845  -0.24790877
N   -0.42395730  -0.91620376  -1.10937718
Na  -1.34136753  -2.12439290  -3.08315194
