7
Energy:    -94.75801796
C   -0.28472175  -0.73567865  -0.85999654
H   -0.46236235  -0.15743323  -1.74259284
H   -1.19457966  -1.20852519  -0.55426164
H    0.45371645  -1.48228939  -1.06537550
C    0.21766504   0.18718874   0.26584682
N    0.59171485   0.87430546   1.10408838
Na   0.67856743   2.52243225   2.85229131
