7
Energy:    -92.01085985
C   -0.75725336  -0.81731643  -0.24993326
H   -0.54045260  -1.75720579   0.21321423
H   -0.62556827  -0.90246785  -1.30837899
H   -1.76859428  -0.53988524  -0.03751720
C    0.19676412   0.25868445   0.30113186
N    0.90707351   1.05981600   0.71142488
Na   2.58803088   2.69837485   0.37005849
