7
Energy:    -93.29811436
C   -0.80763673   0.55718551   0.59436361
H   -0.50822669   1.46162144   1.08144621
H   -1.14012988  -0.14890481   1.32633618
H   -1.60527723   0.76647208  -0.08744858
C    0.38798639  -0.02950114  -0.17886607
N    1.27818215  -0.46631602  -0.75457071
Na   2.39510198  -2.14055705  -1.98126064
