7
Energy:    -96.64290120
C    0.13930247   0.13941717  -1.14896841
H    1.16291887   0.04057634  -1.44450207
H   -0.21939893   1.10915457  -1.42436225
H   -0.44714424  -0.60999096  -1.63821968
C    0.02636661  -0.03543569   0.37689920
N   -0.05771928  -0.16562159   1.51297699
Na  -0.60432550  -0.47809984   3.76617622
