7
Energy:    -93.18838199
C   -0.51981039   0.66873479  -0.81994638
H   -1.43566509   1.10420397  -0.47865921
H   -0.72281464   0.00116708  -1.63114408
H    0.14113095   1.44217138  -1.15138488
C    0.13924985  -0.11038875   0.33339924
N    0.62995015  -0.69048164   1.19211748
Na   1.76795917  -2.41540683   2.55561783
