7
Energy:    -95.61176129
C   -0.26591585   0.02455972  -1.13750048
H   -0.47301386  -0.95308300  -1.51989465
H    0.52265646   0.47056148  -1.70682924
H   -1.14518496   0.62987273  -1.21085627
C    0.16268685  -0.08147314   0.33784923
N    0.48180105  -0.16041943   1.43631415
Na   0.71697031   0.06998163   3.80091726
