7
Energy:    -95.64077355
C    0.27878091   0.53197689  -1.00791791
H    0.85302260   1.41361522  -0.81334013
H   -0.58927612   0.79025740  -1.57771372
H    0.87295360  -0.16610370  -1.55977060
C   -0.15350994  -0.10394106   0.32637329
N   -0.47537012  -0.57741087   1.31981373
Na  -0.78660094  -1.88839388   3.31255535
