90
Energy:   -416.38052238
C   -0.84978332  -4.80369384  -3.50981596
H   -1.58364062  -4.13624886  -3.10872888
H   -1.33494126  -5.55904239  -4.09202677
H   -0.17096550  -4.25643592  -4.12998870
C   -0.07230147  -5.46482189  -2.35654596
N    0.50656911  -5.95706178  -1.49788404
C    4.30191978   2.84768822   0.59159950
H    5.24761248   2.35061652   0.53256380
H    3.53656519   2.13316515   0.81202686
H    4.33457243   3.58563525   1.36572293
C    3.99537177   3.52938812  -0.75484529
N    3.76713284   4.03694468  -1.75733463
C   -0.97410233   0.71844801   0.32216864
H   -1.45513485   0.70835988   1.27789147
H   -1.40988887  -0.03148497  -0.30440116
H   -1.10090518   1.67949845  -0.13082382
C    0.52793577   0.42911551   0.50040518
N    1.64627141   0.21369432   0.63311037
C   -0.86547421  -1.08760353  -3.98619138
H   -1.77466069  -1.20826569  -4.53730006
H   -0.82600608  -1.81246550  -3.20011475
H   -0.03052063  -1.22568399  -4.64093209
C   -0.81543885   0.32805430  -3.38203135
N   -0.77818525   1.38207591  -2.93220674
C    2.77115457  -3.10464436  -0.70663038
H    2.27906600  -2.43146326  -0.03612593
H    3.82961045  -2.96153590  -0.64267556
H    2.53078755  -4.11267080  -0.44016185
C    2.30195703  -2.82868608  -2.14722078
N    1.95261813  -2.62322260  -3.21980581
C    1.48122683   3.01489415   3.34163728
H    1.42184708   4.05527015   3.09875456
H    1.97195512   2.49085683   2.54824600
H    2.03664192   2.89132266   4.24780683
C    0.06102229   2.44960200   3.52889076
N   -0.99638454   2.02871630   3.66830948
C   -4.21656316   1.62207149  -2.63218989
H   -4.04419678   0.73108203  -3.19904771
H   -3.42169222   2.31633242  -2.80848808
H   -5.14584324   2.06052575  -2.93067856
C   -4.27119330   1.27416652  -1.13299755
N   -4.31186792   1.01513545  -0.01678070
C    0.41656848   4.43675545  -2.32664887
H   -0.59710311   4.32835876  -2.65164156
H    1.04177416   3.76667091  -2.87892023
H    0.73860815   5.44355268  -2.49262738
C    0.51217278   4.10815047  -0.82515674
N    0.58335453   3.86348913   0.29277239
C    4.84572857  -0.96924887   1.85281539
H    4.09076265  -1.12372637   1.11047898
H    5.05469907  -1.89498227   2.34703001
H    5.73672126  -0.60557573   1.38508366
C    4.34918952   0.06203169   2.88311116
N    3.97949363   0.82986695   3.65021319
C   -2.76514847   3.98182474   1.48945760
H   -2.91806323   2.93605085   1.65641335
H   -3.50191505   4.54045917   2.02797564
H   -1.78900854   4.25830430   1.82947079
C   -2.88958445   4.28501809  -0.01526480
N   -2.98223270   4.51075931  -1.13559901
C   -3.92127793   0.33155746   3.52784858
H   -3.47015065   0.88593365   4.32412203
H   -4.86865674  -0.04784178   3.84945192
H   -4.06196848   0.97206091   2.68235430
C   -3.00455583  -0.84212680   3.13582072
N   -2.32201456  -1.71598809   2.84393815
C    2.71030834   0.86123186  -2.78524482
H    3.02808707   1.72299969  -3.33412828
H    1.92593288   1.13667800  -2.11161016
H    2.35138809   0.11742430  -3.46555774
C    3.89843779   0.29501969  -1.98564981
N    4.78305417  -0.12655101  -1.39031498
C   -4.12315790  -2.37213997  -0.18280976
H   -3.40072689  -1.76962725   0.32706477
H   -3.98123490  -3.39926005   0.08135171
H   -5.10802410  -2.06394570   0.09995154
C   -3.94971013  -2.20459182  -1.70381058
N   -3.82057038  -2.07984462  -2.83626482
C    0.83991086  -1.03230852   3.95791674
H    0.23607743  -1.46294969   4.72917127
H    0.21069672  -0.54621391   3.24188553
H    1.51029962  -0.31731944   4.38718195
C    1.64972037  -2.14117176   3.26061418
N    2.25266035  -2.96677085   2.74144072
C   -0.50163555  -4.40117427   1.41368074
H   -1.16077482  -5.22430983   1.23234276
H   -0.74675531  -3.94783474   2.35139000
H    0.50867971  -4.75250726   1.44064892
C   -0.65427754  -3.36328570   0.28625547
N   -0.76792644  -2.59053048  -0.55316389
