90
Energy:   -416.55111558
C   -0.13181053  -4.21483510  -3.87313154
H    0.90743328  -4.40398034  -4.04370868
H   -0.33543255  -3.17592603  -4.02838972
H   -0.71682241  -4.79842233  -4.55290073
C   -0.49250212  -4.59793112  -2.42581022
N   -0.76105340  -4.88316351  -1.34821370
C    3.73578751   2.75195508   0.43637202
H    4.71191299   3.18994982   0.42088523
H    3.76750383   1.82906196   0.97689163
H    3.05181950   3.42183729   0.91422625
C    3.26965053   2.48571616  -1.00703824
N    2.92259036   2.28748918  -2.08172278
C   -1.02283050   1.07458767  -0.13416381
H   -1.67996994   1.49869362   0.59604306
H   -1.46066344   0.18359700  -0.53333423
H   -0.86490608   1.77909864  -0.92386202
C    0.32582049   0.73258291   0.52596743
N    1.32995245   0.47794482   1.01746515
C    0.98260434  -0.56164888  -2.75868421
H    0.31605158  -1.20683488  -2.22544633
H    1.72683643  -0.18507856  -2.08845106
H    1.45627881  -1.11012302  -3.54589938
C    0.18906561   0.61435173  -3.35778257
N   -0.40176004   1.48993764  -3.80383853
C    2.27936096  -3.12959691   0.29168480
H    1.74093552  -2.22217963   0.46942649
H    3.19470882  -3.11553967   0.84561600
H    1.68609517  -3.96341083   0.60423742
C    2.59073423  -3.25576286  -1.21122199
N    2.82256578  -3.34969914  -2.33020442
C    0.87567902   3.40239651   3.28494821
H    0.79767992   4.40165060   2.91037168
H    1.54534353   2.84121128   2.66727543
H    1.24953296   3.42537763   4.28724767
C   -0.51394956   2.73882799   3.27048350
N   -1.54859121   2.24477107   3.25971387
C   -3.75142497   1.55614032  -3.34899576
H   -4.64523743   1.82536540  -3.87198461
H   -3.29182923   0.72084426  -3.83474399
H   -3.07489692   2.38512092  -3.34875235
C   -4.10017279   1.17774635  -1.89751619
N   -4.35983139   0.89601483  -0.81682367
C    0.21724797   4.58358417  -2.59961133
H    0.33009464   5.62160621  -2.83344043
H   -0.72746585   4.23675154  -2.96309726
H    1.00420184   4.02599872  -3.06296991
C    0.28188963   4.39129398  -1.07303151
N    0.33001828   4.24812519   0.06357655
C    4.22991852  -0.72188505   2.72452127
H    3.59566475  -0.88415200   1.87818105
H    4.30098677  -1.62421003   3.29518581
H    5.20455357  -0.43385415   2.38982168
C    3.63773772   0.39578433   3.60300693
N    3.19683220   1.22793999   4.25707944
C   -3.40035289   4.01296802   1.03382388
H   -2.49638458   4.27646566   1.54206640
H   -3.60459910   2.97359027   1.18507362
H   -4.21002546   4.59558748   1.42097241
C   -3.24210615   4.29111935  -0.47255914
N   -3.12428426   4.49821566  -1.59412977
C   -3.87131059  -0.13320923   2.43391796
H   -3.16424864  -0.02024872   1.63880570
H   -3.85664172   0.74073221   3.05109725
H   -4.85101918  -0.26402551   2.02409206
C   -3.50001479  -1.36533485   3.27985288
N   -3.22356819  -2.28270838   3.90968988
C    4.76540974  -0.53311384  -3.25971696
H    5.74587620  -0.35681578  -3.65023544
H    4.10848243   0.24890729  -3.57876013
H    4.40198765  -1.47309136  -3.61925243
C    4.82281146  -0.55951220  -1.72101355
N    4.86554964  -0.57916697  -0.57537893
C   -3.89035135  -2.71008415  -0.87760603
H   -4.87075331  -2.87525551  -1.27311911
H   -3.94707776  -2.02370974  -0.05872180
H   -3.48203311  -3.63863544  -0.53706555
C   -2.98533321  -2.12380616  -1.97706966
N   -2.31150606  -1.68729554  -2.79567030
C    0.02390517  -0.73886271   4.12734015
H   -0.70980986  -1.04295654   4.84434041
H   -0.46435981  -0.42610561   3.22807411
H    0.59506401   0.07418030   4.52437633
C    0.96060280  -1.92150759   3.81823075
N    1.65801676  -2.80204047   3.58808475
C   -1.09858379  -4.55285429   2.10925911
H   -1.83393746  -4.59118554   2.88558757
H   -0.12841935  -4.72028231   2.52836279
H   -1.30818790  -5.30900283   1.38179460
C   -1.13486263  -3.16842365   1.43573432
N   -1.16187387  -2.13765211   0.93426450
