90
Energy:   -417.49113392
C   -0.43904573  -3.26271471  -3.63760294
H   -1.04846079  -3.31419508  -4.51559111
H    0.58263806  -3.43965133  -3.90171424
H   -0.53045081  -2.29221006  -3.19639446
C   -0.90085032  -4.33076810  -2.62884208
N   -1.24468483  -5.12598239  -1.87777377
C    3.91064616   2.71409892   0.64507694
H    3.84946984   3.73607622   0.95607539
H    4.77267206   2.25823792   1.08553260
H    3.03114888   2.19224837   0.95980801
C    4.02384024   2.65038920  -0.88943541
N    4.10811838   2.60295441  -2.03194961
C   -0.61002444   0.45518039   0.89135058
H   -1.43372682   0.56078176   1.56608231
H   -0.59629096   1.28256796   0.21301416
H    0.30478088   0.43341781   1.44592853
C   -0.76091078  -0.85630675   0.09835952
N   -0.87325251  -1.83276853  -0.49205837
C    1.83833262  -0.10879326  -3.10390216
H    0.78433038  -0.22262285  -3.24889281
H    2.35515230  -0.89755160  -3.60952732
H    2.15290299   0.83448790  -3.49907964
C    2.15872835  -0.16736120  -1.59873892
N    2.39727753  -0.21096769  -0.47807648
C    1.75741490  -3.80560572   0.17146153
H    1.55415123  -2.86391439   0.63708103
H    2.43313722  -4.36703418   0.78227781
H    0.84405707  -4.35087781   0.05589807
C    2.39198125  -3.56811536  -1.21147877
N    2.86444475  -3.39129300  -2.24114068
C    0.71633689   3.66753269   3.25850463
H    1.20195323   3.58223771   4.20813704
H    0.63361427   4.70042855   2.99170471
H    1.29035777   3.15244846   2.51682590
C   -0.68969240   3.04503092   3.34319940
N   -1.73654511   2.58155006   3.40625850
C   -3.74908512   1.58436673  -3.29105420
H   -3.89124501   1.01404772  -4.18516100
H   -3.93758218   2.61798193  -3.49355746
H   -4.42521984   1.23961018  -2.53681031
C   -2.30005514   1.41375796  -2.79830197
N   -1.22118645   1.28673198  -2.43142554
C    0.90463573   3.89997776  -2.76054421
H    1.84725054   4.33390312  -3.02147771
H    0.11321029   4.50326831  -3.15371768
H    0.83971552   2.91426523  -3.17170752
C    0.78047242   3.82585125  -1.22734862
N    0.68802718   3.77066070  -0.08581481
C    3.82309515  -1.37189437   2.49965698
H    3.74349498  -1.48059339   1.43817287
H    3.45178776  -2.25438620   2.97739967
H    4.84875728  -1.22607916   2.76734002
C    2.99587674  -0.15518321   2.95454561
N    2.37997504   0.75071355   3.29323087
C   -2.69054886   3.98105440   0.31999394
H   -2.15997786   4.66831642   0.94534624
H   -2.24292688   3.01207087   0.39485765
H   -3.71173133   3.92750399   0.63498252
C   -2.62867604   4.46359618  -1.14114438
N   -2.58260891   4.82287047  -2.22902827
C   -4.61269832   0.72922604   2.79569349
H   -5.25608040  -0.10137009   2.99835022
H   -5.08304706   1.63287449   3.12294054
H   -3.68761686   0.59944013   3.31749709
C   -4.34118379   0.81088016   1.28201834
N   -4.13902888   0.87167536   0.15501838
C    5.61000951  -0.76058609  -2.13685553
H    6.52017885  -1.06779872  -2.60814349
H    5.20403017   0.08033209  -2.65928876
H    4.90724679  -1.56715552  -2.15852090
C    5.89580629  -0.36786536  -0.67545530
N    6.10859499  -0.07546693   0.41262360
C   -4.05207320  -2.51970800  -1.16009087
H   -3.71232095  -1.76922639  -0.47726883
H   -3.55781453  -3.44475742  -0.94821583
H   -5.10900911  -2.64731627  -1.05284495
C   -3.73122727  -2.08479955  -2.60214237
N   -3.49234290  -1.76099045  -3.67581526
C   -0.68325488  -0.62436674   4.50531697
H   -1.55677854  -0.36611168   3.94392501
H   -0.04018261   0.22785617   4.57654382
H   -0.97014404  -0.93776962   5.48734158
C    0.06133009  -1.77156108   3.79740570
N    0.61570745  -2.62569942   3.27033359
C   -1.90300810  -4.44215227   1.61576560
H   -1.09817989  -4.68671676   2.27708243
H   -1.51745676  -4.27269060   0.63213355
H   -2.60219800  -5.25170765   1.59021828
C   -2.60995526  -3.16890353   2.11642851
N   -3.13630955  -2.22091196   2.48919480
