90
Energy:   -416.45868675
C    0.26982138  -4.39389286  -3.33164673
H   -0.65747217  -4.42857339  -3.86439819
H    0.90788206  -5.18138262  -3.67463001
H    0.74437078  -3.45026324  -3.50271720
C    0.00310363  -4.56870378  -1.82502708
N   -0.19547986  -4.69885846  -0.70328026
C    3.12989578   1.88947938  -0.42552866
H    2.65486692   2.67914059   0.11823870
H    4.18858468   1.94268424  -0.27976810
H    2.76832174   0.94606629  -0.07320063
C    2.81025738   2.03419221  -1.92502507
N    2.57227206   2.14193749  -3.04146831
C    0.00503089   0.44562403   0.93444600
H    0.56155272   1.30079569   1.25672701
H    0.68030664  -0.31429551   0.60064358
H   -0.57804875   0.07150064   1.74989000
C   -0.92863969   0.84699087  -0.22260366
N   -1.62379987   1.14582673  -1.08407973
C   -0.07082736   0.07120345  -4.10636505
H   -0.29607172  -0.67181737  -4.84262942
H    0.57513286   0.81056156  -4.53178727
H   -0.97761571   0.53552586  -3.77919740
C    0.62875493  -0.59180336  -2.90527946
N    1.14962574  -1.08544207  -2.01101664
C    2.94068724  -3.27716744  -0.06794582
H    3.07806465  -3.85106809   0.82461548
H    3.17120486  -3.88205328  -0.91992812
H    1.92401935  -2.94903253  -0.12805385
C    3.87443684  -2.05286288  -0.03983857
N    4.56965586  -1.14131248  -0.01891144
C    0.76338471   4.17412365   2.96576633
H    1.30402792   4.07677207   3.88398622
H    0.50635465   5.20110193   2.81036279
H    1.37256130   3.83232730   2.15522439
C   -0.52156738   3.32808588   3.03445560
N   -1.47827262   2.69817231   3.08559789
C   -4.48714338   0.79591622  -3.04624794
H   -3.45784792   1.06749273  -3.15440167
H   -5.10361214   1.55224560  -3.48537346
H   -4.66324149  -0.13782777  -3.53819379
C   -4.82785620   0.66039322  -1.55053797
N   -5.08153238   0.55949019  -0.43691392
C   -0.39439486   3.94213047  -2.98156624
H    0.50143633   3.90601067  -3.56558851
H   -0.96934200   4.79951284  -3.26304510
H   -0.96834198   3.05563846  -3.15365845
C   -0.03017259   4.03601225  -1.48820481
N    0.24100745   4.10591151  -0.37632935
C    4.22342276  -0.71726447   3.40182814
H    3.67830264  -1.60837184   3.17015619
H    4.50209588  -0.72803454   4.43484527
H    5.10371392  -0.66984171   2.79541439
C    3.33994445   0.51251371   3.12127211
N    2.68215469   1.42813947   2.91238539
C   -3.43269754   3.83779610   0.28681312
H   -2.53658466   3.29647134   0.50783210
H   -4.27429258   3.31416552   0.68983655
H   -3.37704971   4.81313168   0.72330242
C   -3.59125403   3.96678178  -1.23956250
N   -3.70930654   4.06281748  -2.37601853
C   -4.18348455   0.75850085   2.76624616
H   -4.14983615   1.25490595   3.71353172
H   -5.19258192   0.47944656   2.54545145
H   -3.82100133   1.41749048   2.00516950
C   -3.30127054  -0.50277652   2.81602395
N   -2.64442211  -1.44185485   2.85308577
C    4.35946977  -0.82295952  -3.65347642
H    4.38283644  -0.44877381  -2.65130915
H    3.69284094  -0.22709284  -4.24122466
H    5.34242475  -0.77838436  -4.07384727
C    3.87056518  -2.28326734  -3.64491022
N    3.50655349  -3.37053289  -3.63853230
C   -2.54563790  -2.24748499  -0.44180589
H   -1.55106329  -2.19530373  -0.05065546
H   -2.99412794  -3.17514326  -0.15335154
H   -3.12454630  -1.43556111  -0.05380620
C   -2.49839601  -2.15601584  -1.97836100
N   -2.46322229  -2.08791290  -3.12239612
C   -0.06346110  -0.02755528   4.90209456
H   -0.71475210  -0.85634681   4.71817931
H    0.21426942   0.42121525   3.97130465
H   -0.56785429   0.69444921   5.50970966
C    1.20013816  -0.51975675   5.63192648
N    2.14094524  -0.88622312   6.17531952
C   -0.70615192  -4.22660687   2.60750233
H   -0.29959007  -5.10210125   2.14585610
H   -1.57915036  -3.91444181   2.07334336
H   -0.96807533  -4.44689994   3.62129036
C    0.34214386  -3.09877439   2.58162042
N    1.12264771  -2.25905185   2.56235017
