90
Energy:   -416.00387319
C   -1.31744614  -4.19966016  -1.72532830
H   -0.98978978  -3.20259525  -1.93366230
H   -2.19669744  -4.41284608  -2.29661458
H   -0.54467681  -4.89136147  -1.98853154
C   -1.63577250  -4.33232733  -0.22443931
N   -1.87278095  -4.43110407   0.89304076
C    2.70666754  -3.36441777  -3.10029166
H    2.98251430  -4.07530589  -3.85092262
H    2.43944161  -3.88013240  -2.20166615
H    3.53271581  -2.71283600  -2.90539544
C    1.50536584  -2.53681595  -3.59379895
N    0.61094212  -1.92062878  -3.96123756
C   -1.43002296  -1.26662159   2.38963453
H   -0.74240907  -1.67110613   3.10271206
H   -1.33506129  -1.79420856   1.46360355
H   -2.42896622  -1.37075840   2.75864265
C   -1.11861469   0.22474645   2.16503206
N   -0.88675708   1.33513774   1.99780531
C   -1.22464633   3.81079447  -1.26143131
H   -1.11474649   3.22682362  -0.37159973
H   -2.14533378   4.35439812  -1.21985271
H   -0.40809530   4.49775772  -1.34032990
C   -1.23294137   2.88017784  -2.48841293
N   -1.23911741   2.18729146  -3.40195651
C    0.81001109   0.43644464  -0.96059802
H    1.73348789   0.92486033  -0.72920898
H    0.01444094   0.90181901  -0.41709648
H    0.61836144   0.51477347  -2.01037614
C    0.90175353  -1.04903765  -0.56496476
N    0.97005995  -2.15504674  -0.27039781
C    0.93746005   4.35736894   1.60716790
H    1.88115184   4.81124434   1.38729727
H    0.14777738   4.98892709   1.25726122
H    0.87660430   3.40686493   1.11958426
C    0.80338858   4.16317091   3.12897996
N    0.70356627   4.01858165   4.26203822
C   -4.24974314   1.91050188   0.17727795
H   -4.65673042   2.89209223   0.30274475
H   -4.75273594   1.41600200  -0.62731338
H   -3.20574536   1.98306892  -0.04566095
C   -4.44262880   1.10501199   1.47557728
N   -4.58624094   0.50528815   2.44222015
C    1.91557871   1.39545285  -4.61009054
H    1.64562510   2.34049011  -4.18708958
H    1.04107380   0.78734595  -4.71180712
H    2.35741667   1.54861015  -5.57249438
C    2.92682887   0.69009172  -3.68735613
N    3.67975057   0.16491830  -3.00033841
C    4.30520971  -1.45935675   0.45465334
H    4.14254769  -0.92347746  -0.45708929
H    5.26586608  -1.20501990   0.85132853
H    3.54647991  -1.19778634   1.16233202
C    4.24869801  -2.97314582   0.17743666
N    4.20662248  -4.10023059  -0.02896376
C   -2.73699155   3.28448256   4.12959881
H   -3.56596253   2.60874055   4.16246271
H   -2.83859710   4.01174014   4.90784801
H   -1.82671414   2.73926642   4.26756073
C   -2.70777594   3.99504359   2.76363780
N   -2.68602358   4.52408858   1.74661775
C   -4.82902854  -2.62566211   0.77516038
H   -4.65295212  -3.51407257   1.34491834
H   -5.79053058  -2.22731347   1.02361816
H   -4.07396478  -1.90183122   1.00065241
C   -4.78533006  -2.96211542  -0.72700127
N   -4.75279455  -3.21262020  -1.84542889
C    4.61050794   2.75274175  -0.76195114
H    5.38299815   3.16040060  -1.37999103
H    4.64212071   1.68427596  -0.80970671
H    4.75868262   3.06910090   0.24941439
C    3.23993751   3.24848994  -1.25931461
N    2.21948553   3.61759701  -1.62962433
C   -2.65314566  -0.90579067  -3.61470300
H   -1.77842241  -0.53386958  -4.10606246
H   -3.51224715  -0.37134837  -3.96286267
H   -2.76869631  -1.94711830  -3.83192157
C   -2.50932251  -0.71154270  -2.09378793
N   -2.40223964  -0.56691625  -0.96139754
C    2.01140332   0.82830670   4.21398028
H    2.51913539  -0.04143153   4.57545466
H    0.95825339   0.64109528   4.18703214
H    2.21037100   1.65382469   4.86500332
C    2.51003347   1.16139587   2.79552352
N    2.88128628   1.40939590   1.73941799
C    1.43622799  -4.71466779   2.00185226
H    0.48934613  -5.08259916   2.33791985
H    2.20213585  -5.41790547   2.25432207
H    1.41061651  -4.58089814   0.94055644
C    1.73355718  -3.36551099   2.68227219
N    1.95493228  -2.36100243   3.18887576
