90
Energy:   -417.68255883
C    1.57443517   1.21703148  -4.57305845
H    2.23731008   1.99948946  -4.87843780
H    1.74897497   0.34768960  -5.17195714
H    1.74987819   0.98229792  -3.54397196
C    0.11667460   1.67992103  -4.75268962
N   -0.96869442   2.02456335  -4.88643319
C    4.01836249   4.23805893   0.02473323
H    3.28410405   4.87611265   0.47043737
H    4.88102785   4.81485227  -0.23606746
H    4.29691400   3.47442712   0.72055979
C    3.43264550   3.58864512  -1.24286187
N    2.99655259   3.10512702  -2.18664403
C   -0.19864558  -2.33677309  -0.21145166
H   -0.70007938  -2.15391901   0.71592567
H   -0.81138087  -2.95670921  -0.83204314
H   -0.01503264  -1.40645458  -0.70712578
C    1.14066201  -3.04666618   0.06040672
N    2.13783739  -3.57521386   0.26281764
C   -1.69812663  -1.35536765  -3.63158158
H   -2.32460613  -2.22041984  -3.69567782
H   -1.88625383  -0.71593461  -4.46861960
H   -1.91004366  -0.82789443  -2.72507054
C   -0.22069722  -1.78981263  -3.63932016
N    0.87931614  -2.11327666  -3.64508188
C    3.44124697  -1.62061081   3.12306596
H    4.20772523  -0.89050561   2.96699654
H    3.66190832  -2.49732333   2.55071746
H    3.39663506  -1.87449807   4.16155050
C    2.08470921  -1.04419695   2.67680103
N    1.07470519  -0.61503064   2.34453650
C   -0.84275888   0.17168896   5.20793097
H   -1.75449728  -0.32062501   4.94098490
H   -0.49539457   0.75283859   4.37937666
H   -1.01628170   0.81373941   6.04611958
C    0.21926300  -0.88024252   5.57826823
N    1.00998655  -1.66345333   5.85400116
C   -3.35316036   2.03596305  -2.40219583
H   -4.19376667   1.43308499  -2.12866472
H   -2.55362322   1.40521113  -2.73051194
H   -3.63246819   2.69914516  -3.19407695
C   -2.89205615   2.85698301  -1.18362735
N   -2.54874311   3.46826970  -0.27634773
C   -0.13256881   4.67458269  -2.69197503
H   -1.01476568   5.19415150  -3.00290445
H   -0.35883818   3.63777558  -2.55510912
H    0.62502980   4.77853457  -3.44039834
C    0.37241922   5.26940725  -1.36428122
N    0.74840575   5.71228117  -0.37575283
C    0.71449626   2.31940287   0.92604047
H    0.19020215   1.87183982   1.74439442
H    0.46193543   3.35740903   0.86558119
H    1.76854734   2.21712040   1.07905590
C    0.31554033   1.61681520  -0.38499146
N    0.01849951   1.09370674  -1.36111433
C   -1.48576281   5.62251247   2.30438852
H   -1.96984047   5.51935993   1.35574288
H   -0.48102783   5.95981562   2.15730590
H   -2.01735431   6.33450348   2.90052474
C   -1.47002576   4.26077341   3.02342890
N   -1.45830880   3.24689678   3.55878715
C   -2.53864211   0.41167581   1.84777567
H   -1.53411876   0.12563335   2.08018206
H   -3.18724763   0.11664105   2.64600150
H   -2.58729813   1.47320095   1.72249182
C   -2.98087023  -0.27981130   0.54474847
N   -3.31012916  -0.79465489  -0.42541450
C    3.26734409  -0.68703851  -1.58525858
H    3.74731496  -0.29305844  -2.45664131
H    2.20577148  -0.62388231  -1.70347013
H    3.55129789  -1.71022474  -1.45350396
C    3.69573541   0.12765173  -0.35060855
N    4.01469221   0.73422564   0.56864452
C    0.73479201  -5.69994837  -2.28776579
H    1.45812912  -4.94956582  -2.52986006
H    0.91942629  -6.57570270  -2.87416465
H    0.80854501  -5.94438996  -1.24867586
C   -0.67815975  -5.16769262  -2.59086831
N   -1.73016656  -4.77140402  -2.81654191
C    0.20597720  -4.20107964   3.56367105
H   -0.04400845  -5.21216001   3.31846940
H    0.50415555  -4.14620677   4.58981809
H    1.01072507  -3.87141957   2.94028979
C   -1.02162178  -3.29931812   3.33689609
N   -1.93562503  -2.62791568   3.16805183
C   -3.60449688  -4.21670436   0.24964189
H   -3.53848449  -3.77992504  -0.72491768
H   -3.73268594  -3.44417041   0.97879068
H   -4.44053202  -4.88351778   0.28575579
C   -2.31174104  -4.99750001   0.55087351
N   -1.34922555  -5.57883786   0.77515414
