90
Energy:   -416.90562045
C    2.45268895  -3.34462174   2.49470654
H    3.07058477  -3.62378799   3.32245719
H    1.71196409  -4.09944529   2.33201914
H    1.97164605  -2.41273385   2.70703123
C    3.32181466  -3.19767106   1.23192153
N    3.96891826  -3.08825961   0.29172069
C   -4.89324828   0.64655368   0.72584510
H   -4.38150814   0.18212256   1.54274530
H   -4.72595757   0.08160051  -0.16731828
H   -5.94203335   0.68070244   0.93508856
C   -4.36107766   2.07895143   0.53445255
N   -3.96485244   3.14543667   0.39195210
C   -1.39077837   3.69256438   2.58986098
H   -0.54590345   3.96131555   3.18890969
H   -2.24244842   4.26205590   2.89846530
H   -1.17838958   3.89740405   1.56135196
C   -1.68668008   2.19130286   2.76380356
N   -1.90699235   1.07354542   2.89331172
C   -2.88352338   3.82146256  -2.84095123
H   -1.91997378   3.99760075  -2.41031486
H   -3.62726808   4.34465713  -2.27702715
H   -2.89146367   4.17080888  -3.85228362
C   -3.18845062   2.31214593  -2.81681214
N   -3.41548280   1.18839110  -2.79883949
C    4.81653662   1.23447956   2.96634458
H    5.72838236   1.59329181   3.39610184
H    4.06357171   1.99066840   3.04458384
H    4.97740097   0.99662541   1.93559381
C    4.35634176  -0.02795856   3.71872126
N    4.01370578  -0.96790113   4.27889990
C    3.12127777   0.00593031  -0.78895610
H    2.80491465   0.78551964  -1.45005748
H    2.92434851  -0.94482443  -1.23860417
H    4.17036646   0.10127539  -0.60128265
C    2.35013022   0.11505510   0.53958568
N    1.77597583   0.19630346   1.52874542
C   -1.10208266   0.35443181  -0.44016708
H   -2.16864771   0.42476958  -0.39126135
H   -0.73119846  -0.07737136   0.46586273
H   -0.82291273  -0.26164120  -1.26927340
C   -0.50261720   1.76135890  -0.62126743
N   -0.05628792   2.80888007  -0.75610487
C   -3.53383314  -2.13643859  -2.34608075
H   -4.14432520  -1.62702230  -3.06210776
H   -3.14283704  -1.43005858  -1.64390668
H   -4.12296358  -2.86469762  -1.82891230
C   -2.37001354  -2.83812903  -3.07048013
N   -1.50349695  -3.36056947  -3.60982839
C    0.83220656   0.09932671   4.90819820
H    1.07542506  -0.52496233   4.07392718
H   -0.22501851   0.07997921   5.07190503
H    1.33499239  -0.26050128   5.78148470
C    1.28013255   1.54356806   4.61642909
N    1.61363381   2.61887140   4.39919373
C   -1.03813274  -0.19118214  -5.14224362
H   -0.95131431   0.67187872  -5.76873280
H   -1.98089726  -0.17146851  -4.63657028
H   -0.97338531  -1.07507682  -5.74177432
C    0.10060392  -0.18956992  -4.10548124
N    0.94844512  -0.18836954  -3.33356453
C    2.21777316   3.19202604  -3.33510996
H    2.88831763   3.87280567  -3.81657583
H    2.63624322   2.20739401  -3.35189309
H    2.06620707   3.49791466  -2.32102961
C    0.86854577   3.18909538  -4.07752283
N   -0.13601535   3.18691337  -4.63028295
C   -1.85015310  -5.44683326  -0.54536465
H   -2.58962078  -4.67769670  -0.46463870
H   -2.33031631  -6.38554813  -0.72745467
H   -1.18831533  -5.22169048  -1.35541440
C   -1.04734653  -5.52680469   0.76639225
N   -0.44962055  -5.58634706   1.74305490
C    1.80048771  -3.50411464  -2.48333194
H    2.62739381  -4.06725817  -2.10386409
H    2.16485488  -2.65521360  -3.02324183
H    1.21948622  -4.12024801  -3.13733196
C    0.92215100  -3.02861951  -1.31114211
N    0.26818939  -2.67459177  -0.43839350
C    2.12891238   3.99592425   1.39905118
H    1.54021285   4.71851129   0.87350288
H    2.54102419   4.44364865   2.27916811
H    1.51203428   3.16671026   1.67611555
C    3.27091205   3.50499802   0.48997021
N    4.12118271   3.13948113  -0.18688189
C   -1.17208730  -2.20207075   2.65871128
H   -0.87496228  -3.18305442   2.96577470
H   -1.46104671  -1.63195497   3.51683107
H   -0.35315271  -1.71845779   2.16844224
C   -2.36249544  -2.30676943   1.68733770
N   -3.24880841  -2.38472235   0.96410591
