90
Energy:   -418.46476073
C   -0.60312464  -4.79353683  -2.08163111
H    0.16636540  -4.55110624  -1.37877076
H   -0.15977538  -5.16458296  -2.98200064
H   -1.24395722  -5.54218998  -1.66479643
C   -1.42638819  -3.53092346  -2.39729645
N   -2.03934532  -2.59085041  -2.63232364
C    3.67686474   2.75323767  -0.35109064
H    4.54984322   3.37163389  -0.37096190
H    3.84759676   1.91576863   0.29264477
H    2.84628091   3.32035876   0.01415347
C    3.37012110   2.25230745  -1.77466967
N    3.14173652   1.87934213  -2.83458897
C   -1.12824528   0.60416770  -0.07998575
H   -1.36297836  -0.36082105  -0.47822848
H   -1.23208924   1.34187613  -0.84803639
H   -1.79661057   0.83025549   0.72442164
C    0.32100151   0.60588405   0.44086049
N    1.40003161   0.60716195   0.82865419
C    1.22011770  -1.04319736  -2.51824362
H    0.68649063  -1.62997257  -1.80002557
H    2.00425624  -0.50534920  -2.02758569
H    1.64053701  -1.68647172  -3.26278696
C    0.25447722  -0.04694297  -3.18653672
N   -0.46448601   0.69481370  -3.68411130
C    3.09065419  -2.89476913   0.87695257
H    2.50528742  -2.00510272   0.98058461
H    4.11592671  -2.67382403   1.08884549
H    2.73665584  -3.63646270   1.56213497
C    2.96701153  -3.42573614  -0.56332050
N    2.87495396  -3.82106521  -1.63566927
C    0.80378725   3.92804463   2.37573686
H    0.71048324   4.78137757   1.73697442
H    1.46718771   3.21802760   1.92776952
H    1.19520709   4.23318995   3.32366931
C   -0.58007989   3.28259458   2.57550159
N   -1.61043189   2.80202767   2.72423552
C   -3.78727801   0.46631291  -3.53869175
H   -3.16831504  -0.39043157  -3.70534688
H   -3.26413936   1.34883119  -3.84264327
H   -4.68813579   0.37171968  -4.10825867
C   -4.13448942   0.56536160  -2.04161674
N   -4.39300409   0.63910785  -0.92697634
C    0.19747901   3.89200585  -3.61658217
H    0.37037471   4.89865438  -3.93543321
H   -0.75372955   3.56164081  -3.97846657
H    0.96673813   3.25774569  -4.00498085
C    0.21050963   3.83152356  -2.07782550
N    0.22021152   3.78649175  -0.93215121
C    4.39740832   0.09650587   2.68049984
H    3.89482226  -0.13092288   1.76366638
H    4.39253178  -0.76620816   3.31342939
H    5.40782860   0.38049814   2.47241731
C    3.67352395   1.25676204   3.38859379
N    3.13455914   2.12062550   3.91580192
C   -3.23491753   3.92224289  -0.04609067
H   -2.33619848   4.38535655   0.30423773
H   -3.27828169   2.91378430   0.30891626
H   -4.08160660   4.46544176   0.31853476
C   -3.24738985   3.92533162  -1.58603706
N   -3.25667606   3.92763131  -2.73259715
C   -4.57771972   1.06504882   2.67388222
H   -4.16670557   1.91063970   3.18470863
H   -5.51166498   0.79698959   3.12197773
H   -4.73375645   1.31148347   1.64440585
C   -3.60051183  -0.12084880   2.77542807
N   -2.87293613  -1.00380349   2.85103356
C    4.90108870  -1.22460565  -3.23731349
H    5.87035817  -1.27994967  -3.68715115
H    4.31293205  -0.49004096  -3.74661258
H    4.42027447  -2.17789882  -3.30766187
C    5.04458446  -0.83014544  -1.75562186
N    5.15142358  -0.53645187  -0.65243509
C   -4.08994464  -2.59111257   0.05280096
H   -4.54977361  -2.51331013  -0.91021736
H   -3.26881729  -1.90765283   0.11222956
H   -4.80705018  -2.35384487   0.81066821
C   -3.57784739  -4.02825174   0.26253274
N   -3.19656771  -5.09826718   0.41868758
C    0.11124618   0.06214775   4.13397230
H   -0.60822860  -0.17418730   4.88988366
H   -0.39008670   0.22475647   3.20277799
H    0.64301627   0.94798572   4.41220016
C    1.10294693  -1.10668802   3.98580834
N    1.84131323  -1.97693938   3.87549354
C   -0.89852984  -3.94656369   2.87191959
H   -1.37454738  -4.87298295   2.62685871
H   -1.56656657  -3.34481777   3.45202981
H   -0.01087923  -4.14022921   3.43713563
C   -0.52949957  -3.20054190   1.57620815
N   -0.25473977  -2.64509477   0.61149208
