90
Energy:   -417.91746476
C   -0.45320921  -3.68939494  -3.69605754
H   -0.46219981  -4.23571320  -2.77608161
H    0.55488611  -3.43766995  -3.95155205
H   -0.87830087  -4.29086642  -4.47222004
C   -1.27936041  -2.39972923  -3.53531996
N   -1.89446752  -1.43951449  -3.41564354
C    3.62569146   2.68849223   0.84652456
H    4.47414175   3.28676169   1.10557270
H    3.79725717   1.67646984   1.14864207
H    2.75720445   3.06686436   1.34398202
C    3.40760261   2.73941421  -0.67710407
N    3.24522555   2.77732793  -1.81151484
C   -1.13509839   0.55543494   0.09712508
H   -1.84232434   0.49086696   0.89747664
H   -1.33450637  -0.21503872  -0.61807133
H   -1.21825322   1.51151223  -0.37605625
C    0.28946005   0.38123375   0.65559369
N    1.35010856   0.25153304   1.07139896
C    1.35297452  -0.05647809  -2.65252956
H    0.80632972  -0.86937567  -2.22209120
H    2.10578206   0.27031010  -1.96595153
H    1.81546383  -0.37945610  -3.56175336
C    0.39061371   1.10800501  -2.95159606
N   -0.32590767   1.97501560  -3.17426466
C    3.09459620  -3.02677068  -0.05862952
H    2.48600417  -2.24038140   0.33647532
H    4.10529583  -2.89308605   0.26619931
H    2.72954591  -3.97001867   0.29054179
C    3.04126128  -2.99341726  -1.59734422
N    3.00155100  -2.96858412  -2.74298726
C    0.58562755   2.82386556   3.65600355
H    0.49592606   3.84531753   3.35024267
H    1.28590584   2.32183859   3.02159175
H    0.92906516   2.78351176   4.66858504
C   -0.78744247   2.13435995   3.55178880
N   -1.80975552   1.62099168   3.47419619
C   -3.65668084   1.73040646  -3.23302408
H   -3.02992791   0.98377245  -3.67418005
H   -3.12281815   2.65594878  -3.17591781
H   -4.53295275   1.86054087  -3.83311712
C   -4.06592397   1.28561515  -1.81659167
N   -4.37062408   0.95444781  -0.76199336
C    0.31603115   4.94579551  -1.97319485
H    1.11646665   4.49663236  -2.52315453
H    0.49573357   5.99606217  -1.87549087
H   -0.60601484   4.78852985  -2.49280798
C    0.23242203   4.30699965  -0.57442777
N    0.17017124   3.83138709   0.46701791
C    4.26502049  -0.87104648   2.76631141
H    3.81281898  -0.77107576   1.80172869
H    4.24564005  -1.89845594   3.06456177
H    5.27878167  -0.53161564   2.72188075
C    3.48468632  -0.02475312   3.78928068
N    2.90369205   0.60535076   4.55092780
C   -3.33258181   3.73862707   1.09533164
H   -2.48792185   3.10183801   1.25641990
H   -4.23260979   3.16723123   1.18674019
H   -3.33228482   4.52255705   1.82358487
C   -3.25332054   4.34923807  -0.31621781
N   -3.19430693   4.80386572  -1.36718054
C   -4.60885597   0.00756292   2.51374082
H   -4.15201971   0.87382533   2.08270688
H   -4.78858733   0.17961016   3.55441150
H   -5.53707138  -0.18950819   2.01929341
C   -3.67174192  -1.20319386   2.34795398
N   -2.97401792  -2.10465731   2.22451814
C    5.07072148   0.01584236  -3.20474527
H    6.06256111   0.11908212  -3.59268325
H    4.50044904   0.88823995  -3.44684209
H    4.60624680  -0.84538090  -3.63770816
C    5.13247631  -0.14882871  -1.67482051
N    5.17845558  -0.27143380  -0.53572198
C   -4.06517079  -2.45341652  -1.04441260
H   -4.48574941  -2.03757020  -1.93608835
H   -3.27400920  -1.82309218  -0.69562376
H   -4.82275714  -2.52425472  -0.29212013
C   -3.50817423  -3.85716868  -1.34580060
N   -3.09346498  -4.90232596  -1.57019766
C   -0.07814126  -1.43305915   3.90040728
H   -0.81809157  -1.92532444   4.49626683
H   -0.55062197  -0.95607298   3.06725347
H    0.42616319  -0.69858619   4.49296578
C    0.94103347  -2.46816251   3.38909141
N    1.69985538  -3.23884401   3.00839351
C   -0.89482604  -4.77602819   1.22023965
H   -1.35263217  -5.54713873   0.63654259
H   -1.58037582  -4.44237422   1.97096971
H   -0.01223343  -5.15934203   1.68821387
C   -0.51952117  -3.59473024   0.30630234
N   -0.24008963  -2.71520023  -0.37416553
