90
Energy:   -417.53873376
C   -4.63180246   0.79920752   2.83376390
H   -4.84133282   0.10280400   2.04889490
H   -4.83869175   1.79248397   2.49391420
H   -5.24612507   0.57697912   3.68118432
C   -3.14830150   0.69177502   3.23286685
N   -2.04376761   0.61178664   3.53001713
C    4.18215678  -0.33272107   1.60753541
H    4.44446005   0.12457873   0.67642098
H    4.74079498  -1.23696633   1.73067343
H    4.40756174   0.33789233   2.41026162
C    2.67619745  -0.65463626   1.61509177
N    1.55494228  -0.89431675   1.62071782
C    0.08562075   2.62283780   1.61396750
H   -0.95573170   2.37756091   1.63198161
H    0.37607005   3.01555143   2.56597290
H    0.65579082   1.74249793   1.40229110
C    0.34574173   3.67767230   0.52251835
N    0.53941363   4.46304454  -0.29011515
C   -1.79134673  -0.07944031  -4.99802121
H   -2.62521728   0.52995941  -5.27764963
H   -1.44146938  -0.61926890  -5.85304754
H   -1.00545000   0.54202390  -4.62245809
C   -2.22586288  -1.07401642  -3.90549474
N   -2.54937990  -1.81452355  -3.09205913
C    2.78061743  -4.31526266   1.35437789
H    2.31038280  -3.63201879   0.67839165
H    2.39196986  -5.29930960   1.19467884
H    3.83676649  -4.31671844   1.18277917
C    2.49670007  -3.88023509   2.80411647
N    2.28531070  -3.55633728   3.88351274
C    1.80386620   2.69943991  -3.13945410
H    1.53857708   2.06385694  -3.95832903
H    2.65553590   3.28927599  -3.40713153
H    0.98204971   3.34425126  -2.90764582
C    2.14271851   1.83723338  -1.90925940
N    2.39500945   1.19528143  -0.99332352
C   -3.59326721  -4.15566605  -0.91265070
H   -3.72306581  -5.13497685  -0.50155112
H   -2.57680065  -4.03083382  -1.22266962
H   -4.24079475  -4.03406679  -1.75575259
C   -3.93745127  -3.10086583   0.15530708
N   -4.19371194  -2.31551912   0.95045020
C   -1.07571548  -2.66669370   3.09544311
H   -0.61064771  -1.70315275   3.08126662
H   -0.67020534  -3.24668632   3.89798231
H   -2.13021891  -2.55173082   3.23581807
C   -0.81099974  -3.38417848   1.75875273
N   -0.61390683  -3.91837852   0.76352599
C    1.18085563  -0.09942354   5.08483795
H    0.13889793   0.14391839   5.08183149
H    1.51039877  -0.24421854   6.09247619
H    1.33895849  -0.99766507   4.52531607
C    1.97865152   1.05154093   4.44421130
N    2.57264683   1.90848629   3.96723565
C    0.93748187  -2.18273795  -1.79348666
H   -0.08137380  -2.50898864  -1.81333124
H    1.09324289  -1.55108199  -0.94398777
H    1.58320124  -3.03346137  -1.72856184
C    1.25034031  -1.39788603  -3.08101416
N    1.48327765  -0.81352810  -4.03963691
C   -5.04830462   0.20473847  -1.42074216
H   -4.85916054   0.70018019  -0.49140788
H   -4.46104940  -0.68806141  -1.47495267
H   -6.08630806  -0.04659950  -1.48614232
C   -4.67178955   1.13837764  -2.58614093
N   -4.39145696   1.83351445  -3.45383329
C   -2.70372945   4.38860463  -1.72839782
H   -1.94900883   5.08543691  -1.42886193
H   -3.55646787   4.92163751  -2.09392788
H   -2.31933796   3.75712124  -2.50194225
C   -3.11589422   3.52738069  -0.52008763
N   -3.42276963   2.88616031   0.37955423
C   -1.59161273  -0.29562830   0.09072055
H   -1.58547096  -1.30767680  -0.25658376
H   -2.55744421  -0.06022344   0.48651492
H   -0.85373531  -0.17683057   0.85643793
C   -1.27236826   0.65117975  -1.08113161
N   -1.03467624   1.35612138  -1.95362881
C    3.88226943   3.54837356   1.12878557
H    3.40131795   4.37709290   0.65253972
H    4.35465370   3.87982616   2.02983572
H    3.15442184   2.79962154   1.36225372
C    4.94215815   2.95623539   0.18136366
N    5.73129348   2.51536160  -0.52403502
C    4.94473014  -0.39135585  -2.73641625
H    4.97293862   0.52672320  -2.18756715
H    4.20990881  -0.32137836  -3.51103865
H    5.90471725  -0.57664743  -3.17114704
C    4.58005994  -1.54673933  -1.78578244
N    4.30854640  -2.40697485  -1.07799235
