90
Energy:   -416.33189132
C   -0.62143820  -3.99505166  -4.16944872
H   -1.47060928  -3.37912296  -4.38025788
H   -0.65449889  -4.87050009  -4.78377447
H    0.27529963  -3.44871104  -4.37505097
C   -0.64231613  -4.40786004  -2.68595509
N   -0.65786070  -4.71521465  -1.58142665
C    2.58519797   1.18209305  -0.37211458
H    2.15403930   1.86787711   0.32695810
H    3.59807739   0.97854549  -0.09364958
H    2.02460577   0.27070415  -0.36971474
C    2.55478857   1.79975278  -1.78249457
N    2.53214740   2.25962853  -2.83258658
C   -0.79205462   1.00921664   1.23561901
H    0.16029886   1.33192505   1.60138166
H   -0.88748197  -0.04761137   1.37312269
H   -1.56929357   1.51051560   1.77366925
C   -0.90674481   1.34430493  -0.26310111
N   -0.99213687   1.59379339  -1.37896637
C   -0.08763062   0.46417760  -4.38961854
H   -1.13675178   0.29020769  -4.50785316
H    0.40523720   0.32402206  -5.32894640
H    0.07164634   1.46601370  -4.04924467
C    0.48371966  -0.52561342  -3.35740121
N    0.90911591  -1.26255783  -2.58886850
C    2.75470917  -3.89740399  -1.10737311
H    2.42922104  -2.90613398  -0.87000960
H    3.71878946  -4.06910111  -0.67613257
H    2.05644144  -4.60601150  -0.71342303
C    2.84059756  -4.05711146  -2.63665945
N    2.90454537  -4.17602093  -3.77528264
C    1.32941450   3.58763306   3.92126495
H    1.99325226   3.24163744   4.68579528
H    1.25596130   4.65406321   3.96849268
H    1.70734024   3.29824212   2.96297266
C   -0.06423099   2.96725141   4.13216507
N   -1.10186341   2.50534907   4.28918979
C   -4.33764436   1.84550219  -2.35362514
H   -4.58877965   2.87919678  -2.46898001
H   -5.07238254   1.24291275  -2.84550405
H   -3.37692034   1.66133013  -2.78720225
C   -4.30144789   1.49010250  -0.85563286
N   -4.27449797   1.22549128   0.25969048
C    0.30560004   4.79380667  -2.00376772
H    1.22496601   5.16370957  -2.40729992
H   -0.45976302   5.53157837  -2.12546986
H    0.02407327   3.89943639  -2.51927093
C    0.48913939   4.48680739  -0.50588096
N    0.62579278   4.25823247   0.60936382
C    3.96730781  -1.51888312   2.18927784
H    3.69428528  -1.70041876   1.17074768
H    3.70359892  -2.36710062   2.78583780
H    5.02256852  -1.35322376   2.25157459
C    3.22101189  -0.27523179   2.70693968
N    2.66536066   0.65072316   3.09236244
C   -2.84046641   4.23709831   1.69189196
H   -3.31172866   5.01705051   2.25268305
H   -1.80948279   4.17052035   1.97035066
H   -3.32632868   3.30624917   1.89769969
C   -2.94676847   4.55010018   0.18778767
N   -3.02591518   4.78314429  -0.93208634
C   -4.11671992   0.46940811   3.58468667
H   -3.49780260   1.34164297   3.61705745
H   -4.51750911   0.28011972   4.55856399
H   -4.91826202   0.62628134   2.89344131
C   -3.27703844  -0.73930664   3.13131741
N   -2.65185741  -1.63924970   2.79376339
C    4.20872083  -0.83609925  -3.92814120
H    4.01640306   0.20015430  -4.11278309
H    3.33302157  -1.40740224  -4.15543568
H    5.01874238  -1.16406306  -4.54555834
C    4.58004214  -1.03325811  -2.44663896
N    4.85650774  -1.18005184  -1.34359321
C   -2.32207902  -1.83945171  -0.73324701
H   -1.26805343  -1.69394773  -0.62029203
H   -2.56750706  -2.85693845  -0.51101989
H   -2.84557075  -1.19144100  -0.06172811
C   -2.73241902  -1.51709879  -2.18214648
N   -3.03793579  -1.27709239  -3.26091800
C    0.07286407  -0.78471037   4.76560964
H   -0.86015709  -1.03076966   5.22802344
H   -0.10529391  -0.41572642   3.77717164
H    0.56970202  -0.03306748   5.34274402
C    0.95705771  -2.04343609   4.69204903
N    1.61538006  -2.98061461   4.63727982
C   -0.39996599  -4.24482109   1.88463062
H   -0.27671287  -4.99085634   1.12757035
H   -1.44233359  -4.04881400   2.02587549
H    0.02477662  -4.59441748   2.80238612
C    0.31156118  -2.95003191   1.45006179
N    0.84132551  -1.98600251   1.12650555
