90
Energy:   -416.80500695
C   -0.74259556  -3.63234606  -3.70368792
H   -1.40713225  -3.20966404  -4.42800214
H    0.00787160  -4.20958248  -4.20218190
H   -0.27662539  -2.84699924  -3.14601304
C   -1.53692134  -4.54021721  -2.74639145
N   -2.12833298  -5.21616855  -2.03364071
C    3.58906198   2.96443353   0.42037901
H    2.82562520   3.38898077   1.03829818
H    4.47738240   3.55640467   0.49356434
H    3.79753205   1.96668097   0.74584662
C    3.10928099   2.93742470  -1.04272753
N    2.75206223   2.91731541  -2.13207684
C   -1.13885191   0.67848139   0.15293862
H   -1.75731972   0.60521879   1.02301352
H   -1.39235048  -0.10372886  -0.53173991
H   -1.29430827   1.62746389  -0.31627842
C    0.33987144   0.54389717   0.56142892
N    1.44084820   0.44369310   0.86556852
C    0.87140952   0.02501770  -2.87141695
H    0.25107282  -0.69605884  -2.38138514
H    1.65304690   0.33235758  -2.20848083
H    1.29955611  -0.41097145  -3.74976942
C    0.02304457   1.24798987  -3.26665865
N   -0.60860170   2.15854823  -3.56093406
C    3.10896759  -2.83070445  -0.57764489
H    2.54827893  -2.04275269  -0.11975797
H    4.15243277  -2.67744094  -0.39711844
H    2.80924884  -3.76994451  -0.16183739
C    2.84550076  -2.83354728  -2.09493759
N    2.64933773  -2.83566390  -3.22463098
C    1.02649198   2.88262367   3.59814733
H    0.85020441   3.90869234   3.35115349
H    1.66036329   2.44133328   2.85762788
H    1.50089555   2.82260886   4.55535084
C   -0.31487543   2.12735520   3.64177081
N   -1.31358444   1.56502350   3.67425048
C   -4.02845198   1.40955930  -3.05755690
H   -3.36036301   2.23544629  -3.18588458
H   -4.53512914   1.50305244  -2.11977420
H   -4.74572719   1.40433003  -3.85152668
C   -3.22842277   0.09386308  -3.07984409
N   -2.63276466  -0.88573256  -3.09643792
C   -0.25657025   4.96890965  -1.89000639
H   -0.20937298   6.03726980  -1.85424070
H   -1.19966285   4.66692693  -2.29532340
H    0.53311317   4.59753703  -2.50918453
C   -0.10370422   4.40039698  -0.46697255
N    0.01011149   3.97711345   0.59254083
C    4.62092726  -0.66169945   2.06667180
H    3.98516778  -0.58761011   1.20922161
H    4.69048443  -1.68491917   2.37176572
H    5.59584194  -0.29585152   1.82050976
C    4.03268593   0.17779276   3.21594329
N    3.59471352   0.80283286   4.07162816
C   -3.52337139   3.18542531   1.65885338
H   -2.63025418   3.53118457   2.13602461
H   -3.56509631   2.11751093   1.71097805
H   -4.37609219   3.60029681   2.15448224
C   -3.52145931   3.62768483   0.18372530
N   -3.52003568   3.95696715  -0.91457461
C   -4.13269754  -0.30302957   3.87025654
H   -3.58253102   0.31098084   4.55231826
H   -4.94057242  -0.77616764   4.38830831
H   -4.52248578   0.30319491   3.07939872
C   -3.20078481  -1.37829244   3.28123327
N   -2.50693342  -2.17887452   2.84267867
C    4.44073655   0.31348826  -3.89346941
H    5.34704490   0.50412713  -4.42934456
H    3.76944989   1.13645454  -4.02385275
H    3.98640541  -0.58010738  -4.26759392
C    4.75637876   0.14076394  -2.39609293
N    4.99138873   0.01216284  -1.28122809
C   -3.87913477  -2.62601453  -0.40213625
H   -4.67893151  -3.04677495  -0.97501148
H   -3.72430100  -3.21299173   0.47898994
H   -2.98442229  -2.62073327  -0.98895886
C   -4.23858801  -1.18322418  -0.00120061
N   -4.50621728  -0.10900119   0.29731419
C    0.61968818  -1.37687799   3.78496277
H    0.00279236  -1.85781083   4.51506093
H    0.00177002  -0.93195680   3.03321721
H    1.20739028  -0.61838870   4.25845969
C    1.55104719  -2.41670756   3.13463605
N    2.24448632  -3.19090795   2.65043825
C   -0.63324291  -4.72059391   1.22384659
H   -1.11589580  -5.48168256   0.64705335
H   -1.25197683  -4.45763564   2.05626498
H    0.30746364  -5.08555629   1.57989816
C   -0.40198306  -3.47838328   0.34348777
N   -0.22979958  -2.55350101  -0.31197939
