90
Energy:   -417.10288141
C   -1.69568844  -3.92586312  -2.37547267
H   -1.60648820  -4.98108277  -2.52862289
H   -2.32280001  -3.50703998  -3.13456249
H   -2.12695736  -3.74020072  -1.41399688
C   -0.30079092  -3.27714180  -2.44633545
N    0.73777369  -2.79413929  -2.49909602
C    1.52973900   3.67802516  -0.91293314
H    2.46695673   3.62939051  -1.42689596
H    1.31523371   2.72718709  -0.47157893
H    1.58128986   4.42332279  -0.14692202
C    0.41537664   4.04384793  -1.91091622
N   -0.41431679   4.31621961  -2.65395999
C    0.85790673  -0.60389076   0.38553392
H    1.37081471  -0.75227339   1.31279233
H    0.71011932   0.44336089   0.22329345
H    1.44181771  -1.00976362  -0.41397485
C   -0.50799173  -1.31343792   0.43517499
N   -1.52496521  -1.84172804   0.47213503
C   -4.35400182  -0.31994462  -0.43187889
H   -4.33399345  -1.34999577  -0.72083299
H   -3.45735727   0.16089411  -0.76312164
H   -5.20093737   0.15899697  -0.87709146
C   -4.45434290  -0.21880696   1.10151696
N   -4.52905140  -0.14350537   2.24319987
C    3.19644938  -4.94811706  -1.08272180
H    2.67144295  -4.61148056  -1.95217236
H    2.82580193  -5.90882970  -0.79194565
H    4.24111112  -5.02046322  -1.30260129
C    2.98198910  -3.94578775   0.06660094
N    2.82231366  -3.19950802   0.92232395
C    1.15946165   3.32054629   3.11759372
H    1.47004989   4.34202585   3.04677973
H    1.09563070   3.03774837   4.14756947
H    0.20075470   3.20646177   2.65632938
C    2.18413879   2.42159173   2.40099238
N    2.94705749   1.75227921   1.86745011
C   -3.51336284   2.77235938  -2.87601886
H   -3.57935865   3.58016756  -3.57458215
H   -3.97189355   1.90075585  -3.29429623
H   -2.48482243   2.56734792  -2.66394810
C   -4.23876739   3.15924094  -1.57382421
N   -4.77886405   3.44729185  -0.60428110
C   -2.58854252   6.22381652  -0.50254728
H   -2.55718202   7.28486145  -0.63708477
H   -3.54235510   5.94240231  -0.10764640
H   -2.43580404   5.74016240  -1.44469840
C   -1.48072835   5.79783068   0.47871917
N   -0.65591035   5.48066486   1.20931664
C    4.73063572  -0.25964560  -0.11277151
H    4.10525401  -0.78335297   0.57970844
H    5.29482825   0.48502273   0.40881737
H    5.39968337  -0.95034990  -0.58202828
C    3.85577239   0.41643485  -1.18474603
N    3.20439687   0.91980748  -1.98287978
C   -2.75801966   2.75359044   2.25698053
H   -2.71946414   1.96857714   2.98304372
H   -3.77836884   2.96395197   2.01298324
H   -2.29852979   3.63291433   2.65767698
C   -2.00629130   2.31508959   0.98646037
N   -1.44659537   1.98860577   0.04050036
C   -2.11850408  -1.60254457   4.01375435
H   -2.97512114  -1.21937067   4.52784107
H   -1.64061061  -2.34349705   4.61997738
H   -2.42544883  -2.04280590   3.08809028
C   -1.13165245  -0.45396163   3.73360959
N   -0.39689656   0.40121058   3.52502909
C    3.15178391  -1.53304575  -4.60672465
H    2.88994871  -0.53305495  -4.33038986
H    2.26647301  -2.13154127  -4.66082455
H    3.63528690  -1.52432338  -5.56121293
C    4.10693561  -2.12345355  -3.55282529
N    4.81808947  -2.56303899  -2.76814931
C   -0.01372883   0.62370735  -2.99496662
H    0.10408764   1.35592255  -3.76625150
H    0.76457195  -0.10626389  -3.07426968
H    0.04089673   1.10088042  -2.03881758
C   -1.38209019  -0.06629602  -3.14689598
N   -2.40089742  -0.58003489  -3.26001429
C   -0.36461855  -4.59727635   2.04576469
H   -0.12348885  -5.23111371   2.87341610
H   -1.38541658  -4.28545735   2.12086046
H    0.27262088  -3.73780328   2.05721232
C   -0.15962703  -5.37081075   0.73000521
N   -0.00700152  -5.94674228  -0.24963753
C    2.91423174  -1.15859972   3.86649131
H    3.26850020  -1.38688806   2.88298815
H    3.73306110  -1.18186424   4.55487808
H    2.47339346  -0.18363711   3.86942617
C    1.86032354  -2.19977083   4.28701506
N    1.07564098  -2.97497005   4.60011411
