25
Energy:   -373.99449744
Na  -0.83371885  -0.00582778   1.46246051
O   -0.77651811  -0.38825334   3.82294963
H   -0.67303829   0.38319790   4.38007328
H   -0.85660493  -1.11846775   4.43663103
O   -3.07543359   0.21681916   0.93353784
H   -3.85364353   0.65744496   1.27481492
H   -3.41809047  -0.53315898   0.44737851
C    0.26158400  -3.76083660  -1.65022493
H   -0.11084813  -4.75822208  -1.54337596
H    1.31158688  -3.79208389  -1.85373572
H   -0.24418882  -3.27597813  -2.45893082
C    0.01432295  -2.97820671  -0.34716989
N   -0.16977414  -2.39550319   0.62301382
C    3.00452970   2.79077928   0.37614733
H    2.85962054   2.68462432  -0.67866671
H    3.90418729   2.28864095   0.66489015
H    3.08065563   3.82912937   0.62299348
C    1.80868961   2.17181784   1.12344460
N    0.91833230   1.71097292   1.67984138
C    0.19102311   1.27840201  -3.51849530
H   -0.71220954   1.78126767  -3.79453348
H    0.38355995   0.48540494  -4.21058222
H    1.00522287   1.97243285  -3.53578781
C    0.04205452   0.69708771  -2.10022803
N   -0.06885936   0.26427279  -1.04426358
