25
Energy:   -374.24780017
Na   0.65444271   0.01321189  -0.14808306
O   -0.30306297   1.76231778  -2.00832134
H    0.12051994   2.37036404  -2.61420013
H   -1.23963662   1.87557876  -2.17028924
O    2.79255118  -0.87919512   0.33523331
H    2.96484863  -1.72585557  -0.07672727
H    3.59842454  -0.67466171   0.80953919
C    1.52505142   4.49021887   2.21647223
H    0.61677196   4.77212597   2.70683636
H    1.83423985   5.27591036   1.55921240
H    2.28639230   4.31687960   2.94805452
C    1.29153252   3.20315163   1.40374420
N    1.11766708   2.24487157   0.79863124
C   -2.10448227  -2.67188811   3.12972956
H   -2.31066888  -3.56423314   2.57645964
H   -3.02167542  -2.16229061   3.33941076
H   -1.61954938  -2.92622412   4.04899686
C   -1.18559437  -1.75496240   2.30118126
N   -0.50144057  -1.07226953   1.68428939
C   -1.80804526  -2.47855482  -3.90748617
H   -2.75749268  -2.79047177  -3.52518055
H   -1.31903835  -3.31036005  -4.36994849
H   -1.95195800  -1.70262347  -4.63006403
C   -0.93822680  -1.94921000  -2.75214644
N   -0.29060741  -1.55508873  -1.89194349
