25
Energy:   -372.09753695
Na  -0.58724324  -0.19650030   0.09161820
O   -1.89431803  -1.66170599   1.46979637
H   -2.01086687  -1.63295772   2.41943933
H   -2.55625812  -2.28254677   1.16545461
O    0.11114225   1.73072523  -1.19230697
H    0.65938697   2.43588326  -0.84819693
H    0.22113058   1.78276151  -2.14174188
C    3.36051530  -0.27477697   3.44718900
H    2.96276265   0.00818445   4.39935802
H    4.21609867   0.32801233   3.22465529
H    3.64710760  -1.30537379   3.47237135
C    2.28910073  -0.06630651   2.36081388
N    1.49138388   0.08890923   1.55195823
C   -4.12298114   3.27866497  -0.67265317
H   -5.01150100   3.43781803  -0.09810731
H   -4.36431020   3.29613060  -1.71493640
H   -3.41567325   4.05212613  -0.45731047
C   -3.51483683   1.91125777  -0.30939288
N   -3.06204575   0.89316095  -0.03892908
C    2.56994292  -2.95641316  -2.99741577
H    3.57013578  -2.65427932  -2.76670047
H    2.40068006  -2.85607191  -4.04916708
H    2.43040679  -3.97746314  -2.70951701
C    1.57485079  -2.06612614  -2.23009532
N    0.83395947  -1.40326699  -1.65879037
