25
Energy:   -377.34833755
Na  -0.04548018  -0.70816474   1.25875261
O   -2.16763008  -1.44005481   1.56450608
H   -2.80816062  -1.48599864   0.85468805
H   -2.61296392  -1.83256664   2.31540160
O    2.04494224  -1.79499032   1.22832884
H    2.55960941  -2.08709169   1.98067607
H    2.24315782  -2.43060224   0.54062256
C    1.21111750   1.83423602  -2.73177997
H    1.75122411   1.02494024  -3.17700505
H    1.88040533   2.64658412  -2.53931319
H    0.43975759   2.15802493  -3.39891094
C    0.58067408   1.36382815  -1.40782471
N    0.11128029   1.01358811  -0.42207984
C   -0.62587156   3.65389496   3.71267958
H    0.20349659   4.29090347   3.48625343
H   -0.79424241   3.64959817   4.76934031
H   -1.50037145   4.01598146   3.21363810
C   -0.31858688   2.22212662   3.23600826
N   -0.08979947   1.15611001   2.88110479
C   -0.33670166  -2.39956979  -3.87931392
H   -1.10497883  -1.79790162  -4.31822824
H   -0.55379206  -3.43373416  -4.04746532
H    0.60524857  -2.15588163  -4.32456098
C   -0.27421303  -2.12782685  -2.36476747
N   -0.22768740  -1.92550189  -1.23711880
