25
Energy:   -373.04794009
Na  -0.45521370  -0.78224245  -0.02361993
O   -2.68388672  -0.17594913  -0.42724957
H   -3.17099727  -0.10146075  -1.24786314
H   -3.33635131  -0.01564785   0.25453141
O    0.47378533  -2.99271062  -0.17910480
H    0.56709863  -3.79234376   0.33868988
H    0.90436441  -3.19330680  -1.01012506
C   -0.35506336   0.15550575   5.12809110
H    0.36653921   0.94535035   5.14640553
H   -0.02291109  -0.64565584   5.75476013
H   -1.29443202   0.52224193   5.48584826
C   -0.51969425  -0.35603310   3.68489165
N   -0.64226943  -0.73689703   2.61036405
C    0.88822988   3.67025138  -0.03833826
H    0.11859183   3.81129887  -0.76817595
H    1.84297501   3.84613969  -0.48825396
H    0.74313995   4.35602072   0.77009753
C    0.83063501   2.22710298   0.49608247
N    0.78775300   1.15261339   0.89398299
C    1.41937390  -0.74870458  -4.76727244
H    0.64276976  -0.62619921  -5.49306761
H    1.95279478  -1.65490309  -4.96517525
H    2.09292221   0.08088700  -4.82213206
C    0.79996883  -0.81476413  -3.35887850
N    0.33879360  -0.86394847  -2.31026519
