25
Energy:   -380.67492631
Na  -0.91975212  -0.31950502  -0.59287230
O   -0.96835578  -2.60921633  -0.49893456
H   -0.22565151  -3.20767894  -0.41853105
H   -1.73786182  -3.17830460  -0.48374106
O   -2.82357406  -0.19305723  -1.97166566
H   -2.75233643   0.28438670  -2.79822742
H   -3.74777888  -0.12257564  -1.73268943
C    3.03037744  -1.17297180  -3.71946362
H    3.49299771  -0.23255049  -3.93507999
H    2.66514018  -1.60711372  -4.62666902
H    3.74796659  -1.82953639  -3.27349519
C    1.85742464  -0.95667308  -2.74529905
N    0.98410797  -0.79562885  -2.01998925
C   -1.35324467   3.75974955   2.20312519
H   -0.41078121   4.23175553   2.38717181
H   -1.65484610   3.21429969   3.07284935
H   -2.08718582   4.50482461   1.97708839
C   -1.21928007   2.79310099   1.01180489
N   -1.11953733   2.07338720   0.12481277
C    1.83649688  -0.30832856   3.85217130
H    1.36217312  -0.87786817   4.62388484
H    2.01423434   0.68725041   4.20164375
H    2.76772560  -0.76652693   3.59185146
C    0.92308458  -0.26204356   2.61316538
N    0.24300761  -0.22758227   1.69066915
