25
Energy:   -372.56628223
Na  -0.20436056   0.14702107  -0.36166606
O   -1.51762994   1.73166801  -1.48152168
H   -1.39310825   2.04747026  -2.37650500
H   -2.31622431   2.16650259  -1.18252710
O    1.94380403   1.39091013   0.37771324
H    2.42550608   2.18753621   0.15504336
H    2.50595629   0.93840235   1.00656411
C   -3.32888568  -3.84810920   0.08533269
H   -4.05051691  -3.86412262  -0.70453573
H   -3.82589007  -3.68826418   1.01932161
H   -2.80964940  -4.78326864   0.11307418
C   -2.32227169  -2.70918662  -0.16202054
N   -1.57280181  -1.86120699  -0.34618626
C   -0.35113848   1.64693288   4.34559759
H   -0.23960056   2.70393038   4.22224546
H    0.45763747   1.26940140   4.93572516
H   -1.27845926   1.44121890   4.83819988
C   -0.34105373   0.96508286   2.96480838
N   -0.33354518   0.45741453   1.93674805
C    3.50685224  -0.19604289  -3.21013876
H    3.70951799   0.85160582  -3.28925227
H    3.62840456  -0.65620165  -4.16845918
H    4.18680056  -0.63920016  -2.51287193
C    2.06160073  -0.40377444  -2.72055151
N    0.98554529  -0.55844002  -2.35603155
