25
Energy:   -373.44926001
Na   0.02429275   1.32677557   1.37464335
O   -1.04923492   1.54501886   3.43639068
H   -0.79524131   1.79869056   4.32372926
H   -1.92923052   1.18111972   3.53343190
O    1.77743470   2.72069134   0.63735836
H    2.65556159   2.36880251   0.49141569
H    1.91570709   3.65561617   0.78910868
C    1.99729967  -3.04029417   0.80135108
H    1.41065868  -3.82420851   1.23289579
H    3.03442335  -3.22805803   0.98579162
H    1.82349926  -3.00427335  -0.25382427
C    1.59908333  -1.69364460   1.43345761
N    1.30259316  -0.69100278   1.90408966
C    1.19938464  -1.49613761  -3.21523372
H    0.69024839  -1.17591956  -4.10018618
H    0.99620116  -2.53229008  -3.04201821
H    2.25279968  -1.35507912  -3.33900102
C    0.70846150  -0.66874452  -2.01273002
N    0.34294690  -0.05271276  -1.11741135
C   -3.76228093   0.48345474  -1.74195828
H   -3.99122129  -0.55561255  -1.62870784
H   -3.24951792   0.63677646  -2.66849249
H   -4.66934366   1.05101237  -1.73813356
C   -2.86527950   0.94140834  -0.57694029
N   -2.19742116   1.28237562   0.29046856
