25
Energy:   -384.81975327
Na  -0.46375840  -0.58591429  -0.56092036
O   -0.15882690  -0.43148055   1.72361543
H   -0.05806111   0.47311724   2.01989390
H   -0.19303667  -0.94578385   2.53018450
O   -1.64302575   1.34535659  -1.09116034
H   -1.75513088   2.03349691  -0.43531952
H   -2.03333312   1.70649953  -1.88706724
C    3.90901776  -0.28307331  -3.11638119
H    4.20287035  -1.24699094  -3.47612223
H    4.65449065   0.08969054  -2.44539954
H    3.80429522   0.38914182  -3.94224988
C    2.56388574  -0.39974125  -2.37570011
N    1.56237382  -0.48660583  -1.82422937
C   -2.81213509  -5.05685413  -0.95742046
H   -3.39090128  -5.19649625  -0.06835918
H   -2.09143579  -5.84330191  -1.04103560
H   -3.45846293  -5.07323979  -1.80999945
C   -2.08618245  -3.70039145  -0.88958428
N   -1.54567771  -2.69044332  -0.83907716
C    0.58453138   4.56395934   3.57139898
H    1.58325963   4.49732668   3.94955525
H   -0.10215807   4.63727888   4.38869999
H    0.49502948   5.43144636   2.95143545
C    0.26424405   3.30580016   2.74311673
N    0.02577557   2.36904346   2.12642294
