25
Energy:   -386.86433042
Na   0.22357975   0.46030582  -0.87824697
O   -0.99194846   0.66772721   1.09727505
H   -1.35423199  -0.18977463   1.32014962
H   -1.37864615   1.26532865   1.73725104
O   -0.78918529  -1.46601974  -1.70526344
H   -0.76218395  -1.95800758  -2.52590389
H   -1.30094053  -2.01624304  -1.11231088
C    4.88979125  -1.04587838   0.43538837
H    5.49945340  -1.16626672  -0.43565635
H    4.82311029  -1.97844707   0.95574246
H    5.32646023  -0.30964432   1.07739982
C    3.47982483  -0.59003323   0.01610339
N    2.43004073  -0.25063580  -0.29607333
C    0.35045877   5.26276169  -2.41200009
H   -0.15543797   5.43448262  -3.33908185
H    1.36755669   5.58430020  -2.49580876
H   -0.13476073   5.81362817  -1.63353542
C    0.31306449   3.75999821  -2.07748015
N    0.28522275   2.64112249  -1.82841484
C   -3.68487087  -3.43864793   2.74672367
H   -4.70140973  -3.23179572   2.48450032
H   -3.51877134  -3.17102224   3.76931182
H   -3.48765117  -4.48197473   2.61453938
C   -2.74472121  -2.61992932   1.84261170
N   -2.04473706  -2.01035609   1.16945924
