25
Energy:   -381.73712006
Na   1.34845151   0.29516514  -0.25175350
O    1.99189059   1.37124010  -2.22731140
H    1.65508131   2.21233035  -2.53611320
H    2.49129786   1.02635228  -2.96749828
O    3.50539596  -0.73011127   0.20374234
H    4.18139922  -0.50148469   0.84169322
H    3.83870523  -1.51695851  -0.22754434
C   -1.06281000  -3.19189803  -2.97773891
H   -0.47708497  -3.58722950  -3.78119357
H   -1.87481570  -2.62014013  -3.37603371
H   -1.44892084  -3.99697017  -2.38809804
C   -0.18142246  -2.28711652  -2.09675853
N    0.47481063  -1.61346557  -1.44082859
C   -3.72689537   0.11122938   0.92003642
H   -3.83706934  -0.89665578   1.26198582
H   -4.46561518   0.31750113   0.17395058
H   -3.85397947   0.78301718   1.74310985
C   -2.32221428   0.29808153   0.31707928
N   -1.27636537   0.43720145  -0.13184973
C   -0.37113576   2.44717348   3.91474974
H    0.26366180   3.10259463   4.47363734
H   -0.71664638   1.65819394   4.54959839
H   -1.20944464   2.99641900   3.53996091
C    0.41904680   1.84889367   2.73607558
N    1.00737363   1.40344716   1.85849908
