25
Energy:   -384.50685819
Na  -0.07767736  -0.46754056   0.86770221
O    1.97854605  -0.11947886  -0.08450427
H    2.10173475   0.74341574  -0.48006627
H    2.80493529  -0.57600398  -0.24229366
O   -0.34422502   1.50343898   2.06583137
H    0.29457425   2.21625781   2.07335876
H   -1.05815292   1.81509430   2.62207751
C    2.63051458   4.56456933  -2.77646749
H    2.09217723   5.42523748  -2.43832047
H    2.33781710   4.33196884  -3.77902635
H    3.68075414   4.76747022  -2.74950076
C    2.31502310   3.36859368  -1.85902138
N    2.08012535   2.47813544  -1.17594105
C   -3.96512607  -0.83278764  -2.34651380
H   -3.57356075  -0.93866906  -3.33664809
H   -4.55918858   0.05541616  -2.29099044
H   -4.57091153  -1.68242518  -2.10978794
C   -2.80180123  -0.73590396  -1.34207921
N   -1.93565300  -0.66376966  -0.59423200
C   -0.20185582  -4.94048617   3.23436002
H    0.53587631  -5.57274307   2.78613832
H   -1.16876549  -5.38434579   3.12045905
H    0.01546840  -4.82120901   4.27524533
C   -0.18479588  -3.56335032   2.54529848
N   -0.17209398  -2.53801008   2.03226085
