25
Energy:   -377.11546914
Na  -0.15297350  -1.33084902   0.63403808
O    1.36024547  -3.05304730   0.91361313
H    1.44821617  -3.99744580   1.04247147
H    2.24595187  -2.71080283   1.03454591
O   -2.21760247  -2.72014284   0.43860705
H   -2.85567274  -2.88367707   1.13312468
H   -2.61020893  -3.10705107  -0.34394904
C    2.77198346   2.05047647   2.82577074
H    3.11227713   2.66900966   2.02170788
H    3.58381340   1.85751160   3.49554369
H    1.98619604   2.55048822   3.35248269
C    2.24473225   0.71833070   2.26097537
N    1.85216975  -0.27351238   1.84045954
C   -0.83364675  -0.46525805  -4.31573758
H   -1.01201361  -1.38215193  -4.83764856
H    0.02894110   0.01679629  -4.72618233
H   -1.68397981   0.17578924  -4.42009824
C   -0.59456914  -0.76204362  -2.82363832
N   -0.41656499  -0.98301397  -1.71270259
C   -1.32437899   3.77098811   0.06025101
H   -2.37137990   3.96428765   0.16666792
H   -1.00845734   4.04938606  -0.92340909
H   -0.78096548   4.34149182   0.78421674
C   -1.05428011   2.27099482   0.28085635
N   -0.85317922   1.15418163   0.44510705
