25
Energy:   -385.79491498
Na   1.45203338  -0.90365109  -0.28016863
O   -0.43063151  -1.73432357   0.73686269
H   -1.02578010  -1.08890237   1.11825682
H   -0.86140176  -2.57590771   0.88654559
O    3.46704115  -1.60205787   0.61433207
H    4.26832042  -1.81623192   0.13651113
H    3.69573183  -1.72833832   1.53519345
C   -4.34945088   0.94164903   3.22767229
H   -4.99806616   1.50494198   2.58978558
H   -4.06102037   1.54342647   4.06407581
H   -4.86137328   0.06893912   3.57582735
C   -3.09426624   0.52086776   2.44087203
N   -2.15972423   0.20757698   1.85506347
C   -0.52924905   3.52863017   0.91112404
H    0.05001588   4.07359289   1.62692286
H   -1.45837879   3.23518108   1.35328313
H   -0.71935063   4.14846137   0.05990741
C    0.24790027   2.27454273   0.46964512
N    0.82652326   1.34081763   0.14094400
C    1.95275137  -1.46846046  -5.27930535
H    2.62699719  -0.72881994  -5.65775568
H    0.98626373  -1.32686855  -5.71605752
H    2.31696010  -2.44346029  -5.52755201
C    1.84917263  -1.33350523  -3.74873077
N    1.77205355  -1.23302494  -2.60914843
