25
Energy:   -395.59323820
Na  -0.71105666   0.22339049  -0.67718139
O   -2.85870003   1.04677432  -0.34012621
H   -3.27882627   1.25574771   0.49417344
H   -3.52046586   1.25280368  -1.00031538
O   -0.94978221   0.16761278  -3.00230591
H   -1.17792216  -0.59015904  -3.54079071
H   -0.64924770   0.82568059  -3.62908946
C    3.09836569   3.57787946  -0.84935895
H    3.89036123   3.23424608  -1.48146601
H    3.45742868   3.66960068   0.15441397
H    2.75508532   4.53097046  -1.19385165
C    1.93576690   2.56870428  -0.88846805
N    1.07015926   1.81732749  -0.91758656
C   -0.03065479  -4.79739197  -0.32704410
H    0.79256337  -5.11884254  -0.93027007
H   -0.91369742  -5.32757366  -0.61694439
H    0.18268511  -4.99586181   0.70251644
C   -0.25160263  -3.28602724  -0.52340782
N   -0.41610834  -2.16074750  -0.66960954
C    0.39271093   0.12099654   4.29090499
H    1.39362188  -0.24921429   4.36850261
H   -0.27092803  -0.53179333   4.81849178
H    0.34116033   1.10157925   4.71599226
C   -0.01851503   0.18204685   2.80808131
N   -0.32469145   0.22750158   1.70405168
