25
Energy:   -372.00257326
Na   0.50804650   0.39525514  -0.35750186
O    2.04397242  -1.03585173   0.93642887
H    1.56825954  -1.78002809   1.30538773
H    2.95071630  -1.17009658   1.21215647
O    0.01073866  -3.02196657   1.76641270
H   -0.88870680  -2.86177971   2.05201710
H    0.22899536  -3.87984689   2.13060664
C   -3.10102950   2.57054515   2.42846387
H   -3.50476612   3.37491156   1.84976568
H   -2.68627496   2.95712040   3.33589835
H   -3.87836895   1.87281172   2.66043488
C   -1.99809740   1.86069270   1.62146308
N   -1.17691432   1.33217529   1.02061431
C    2.62365222   4.51705790  -2.39969688
H    2.05532075   4.92499639  -3.20931761
H    3.58790700   4.21925137  -2.75525712
H    2.73823393   5.25740447  -1.63572235
C    1.88890530   3.29300239  -1.82225850
N    1.34185281   2.38163743  -1.39232938
C   -1.20426196  -3.97995277  -2.06235702
H   -0.97194627  -4.16891649  -3.08959716
H   -2.25835643  -4.08313955  -1.91025040
H   -0.68431731  -4.68166802  -1.44417229
C   -0.76984565  -2.54952645  -1.69254215
N   -0.44640297  -1.48450904  -1.41719818
