25
Energy:   -368.71741638
Na  -1.55520845  -0.14533276   1.11771957
O   -2.41191423  -1.83943228  -0.17318469
H   -3.15453347  -2.43673677  -0.26249231
H   -1.83834832  -2.05813647  -0.90763855
O    0.27281718   0.00436504  -0.22170998
H    0.34219388  -0.58341206  -0.97399769
H    1.06955929   0.53372785  -0.25647891
C    0.59434865  -3.29330674  -4.38665743
H   -0.09637360  -4.04604274  -4.70476351
H    1.53967202  -3.74531987  -4.16998499
H    0.71543152  -2.56867347  -5.16456788
C    0.05364358  -2.60229755  -3.12105705
N   -0.34893592  -2.08780981  -2.17876003
C   -3.49059723   1.99799168   5.25563813
H   -4.55734322   1.91652812   5.23783723
H   -3.21215381   3.03078889   5.28206332
H   -3.10958254   1.50352041   6.12467499
C   -2.90440611   1.34045023   3.99245992
N   -2.46796017   0.85088072   3.05196632
C    4.88130130   2.97062972  -0.53516668
H    4.89271416   3.48037179  -1.47587543
H    5.71707961   2.30478764  -0.48013898
H    4.94196134   3.68553327   0.25864209
C    3.57467190   2.16636891  -0.40293905
N    2.60182691   1.56756017  -0.30448958
