25
Energy:   -377.24641733
Na  -0.46447998  -0.10460554  -0.62454768
O   -1.43528333  -0.32536307  -2.68288519
H   -1.02065516  -0.84825778  -3.36910413
H   -2.22929239   0.01992860  -3.09099684
O   -2.22033343  -1.66023540   0.05288216
H   -1.69928871  -2.45371109   0.17592921
H   -3.07620960  -1.87525273   0.42365889
C    2.26171717   4.20990654  -0.83270137
H    2.88290914   4.19003426   0.03828991
H    1.55555403   5.00942148  -0.74898421
H    2.86916984   4.35998731  -1.70067378
C    1.50973305   2.87179741  -0.95753664
N    0.94984670   1.87551434  -1.05048217
C    3.45612744  -3.36716332  -0.45883367
H    4.13350323  -3.07429423  -1.23361747
H    3.14083864  -4.37632946  -0.62338078
H    3.94692141  -3.29693986   0.48936939
C    2.22861426  -2.43729864  -0.47160298
N    1.31467490  -1.74497212  -0.48111030
C   -2.71491231   0.84262293   3.72445815
H   -3.58001096   0.26230924   3.48003941
H   -3.01423076   1.83562614   3.98761622
H   -2.20554101   0.39280626   4.55095977
C   -1.77213434   0.89605835   2.50794084
N   -1.07019329   0.93584346   1.60218841
