25
Energy:   -395.59361001
Na   0.21043524   0.35859021   0.91994815
O    1.39689827   2.15050650   1.84030443
H    2.34022417   2.19856061   1.99541374
H    1.08926241   3.05006933   1.95156422
O   -0.42762723  -0.46495719   2.99802870
H   -0.96110413  -1.23860582   3.17996832
H   -0.21741980  -0.10986837   3.86171650
C    4.33732224  -1.66199843  -1.24252314
H    4.19645081  -2.72268321  -1.24072485
H    5.23795472  -1.42092314  -0.71750606
H    4.40851141  -1.31336425  -2.25162442
C    3.14137295  -0.98414486  -0.54839071
N    2.25093435  -0.47945206  -0.03157756
C   -3.06244688   3.37891536  -1.52063722
H   -2.92711397   4.41468017  -1.28873973
H   -4.05067204   3.07731373  -1.24252470
H   -2.92575395   3.22777618  -2.57105194
C   -2.03165338   2.53979514  -0.74285703
N   -1.26418077   1.91503199  -0.16376432
C   -2.19814450  -3.31138026  -1.65660957
H   -1.81320164  -4.27685009  -1.40246948
H   -2.01789165  -3.11710798  -2.69327069
H   -3.25085165  -3.28584018  -1.46672946
C   -1.49649120  -2.23818902  -0.80364813
N   -0.97407843  -1.43914936  -0.16857958
