25
Energy:   -374.74220048
Na   0.53929359  -0.19332843   0.91934925
O   -0.25481823  -2.28549344  -0.12219091
H   -1.05644487  -2.76234747  -0.33721834
H    0.45218188  -2.85833371  -0.41923758
O    2.00243250  -0.99600198   2.57648980
H    1.76714590  -0.95757972   3.50352583
H    2.71264469  -1.63643133   2.53549291
C   -2.67969731   1.74868567   4.51466585
H   -3.51905516   1.11203434   4.70189208
H   -3.01891881   2.67065518   4.09063742
H   -2.16919135   1.94549432   5.43420330
C   -1.71816934   1.05478225   3.53203571
N   -1.00226806   0.53813961   2.80042290
C   -1.41365832   1.51646664  -3.54290388
H   -2.19496958   2.24516011  -3.48409296
H   -1.76912914   0.65388871  -4.06683030
H   -0.57732211   1.93164393  -4.06546359
C   -0.98124009   1.11161453  -2.12138735
N   -0.65928506   0.81018373  -1.06300368
C    2.27772135  -0.35051350  -3.50729177
H    2.52190150   0.63201812  -3.85356892
H    1.29697682  -0.61399246  -3.84436460
H    2.98789896  -1.05152649  -3.89346225
C    2.31569864  -0.37647717  -1.96797906
N    2.34397446  -0.39580830  -0.82189078
