25
Energy:   -395.59362177
Na  -0.17771122  -0.97948938  -0.16959900
O   -2.01879275  -2.42038543  -0.17539007
H   -2.64677228  -2.55171053  -0.88576130
H   -2.42161911  -2.84423469   0.58244539
O    1.31690598  -2.66606283  -0.74006535
H    2.26198118  -2.58827199  -0.87050042
H    1.12840905  -3.59138290  -0.89653745
C   -2.02819819   1.89734476  -3.92331817
H   -2.07917691   2.90264099  -3.56043963
H   -2.99903189   1.58554783  -4.24760772
H   -1.34500660   1.84911089  -4.74540201
C   -1.54083648   0.96864323  -2.79566928
N   -1.17797353   0.27718272  -1.95608342
C   -0.68487902   0.14746295   4.75607008
H    0.30284464   0.22472199   5.16021508
H   -1.23445935  -0.59449469   5.29677279
H   -1.18045831   1.09183742   4.84242470
C   -0.60221405  -0.25506196   3.27190695
N   -0.54066622  -0.55476005   2.16688003
C    3.41806637   2.61938281  -0.00326595
H    3.88587598   2.73850747  -0.95818148
H    4.16082607   2.38821570   0.73142371
H    2.92060894   3.52764344   0.26598824
C    2.39171651   1.47342179  -0.07383021
N    1.62755240   0.62020172  -0.12636851
