25
Energy:   -373.30952581
Na  -0.05728414  -0.35679889   0.13253567
O   -0.53855939  -3.01738204  -3.63792666
H    0.35361620  -3.26520364  -3.88049421
H   -1.09793648  -3.56778367  -4.18600254
O   -0.74492898  -2.30335865  -0.90874771
H   -0.97172645  -2.34107856  -1.83792582
H   -0.75264248  -3.21674237  -0.62256155
C   -0.78545427   3.90988869  -2.58714161
H    0.10419983   4.30364269  -3.03253306
H   -1.14048137   4.58827171  -1.83971179
H   -1.53551629   3.78402988  -3.33978071
C   -0.47538834   2.54795302  -1.93861222
N   -0.24453016   1.53393001  -1.45575262
C    4.52978780  -0.24954856   2.20717443
H    4.38563403  -0.64480568   3.19098929
H    4.85081495   0.76887066   2.27546023
H    5.27413212  -0.82472124   1.69724597
C    3.20392061  -0.31861759   1.42685036
N    2.21675222  -0.37004262   0.84586362
C   -2.83993356   0.94392382   4.10441378
H   -3.37174223   1.81957404   3.79568023
H   -2.19902489   1.18701724   4.92602242
H   -3.53752136   0.19105595   4.40683788
C   -1.99294953   0.41733527   2.93099035
N   -1.36233143   0.02526616   2.05732326
