45
Energy:   -371.49681044
O   -1.71985601  -0.64190485   1.51201899
H   -1.90534685   0.19634603   1.08874550
H   -1.50431521  -1.23265179   0.79035974
O    1.75344485  -2.03976429  -0.80296551
H    0.79880377  -2.06822396  -0.86685831
H    1.93556854  -2.16737564   0.12804370
O   -2.01267428   0.25067562  -2.24372141
H   -2.05003439   0.80963901  -1.46757967
H   -1.22749543   0.53868296  -2.70931543
O    1.11436439   1.99624964   0.44623099
H    1.11673204   1.46572332   1.24295432
H    1.65188305   1.50210117  -0.17273818
O    2.53483603   0.46468924  -1.36725367
H    3.48560601   0.42530408  -1.47077711
H    2.27509526  -0.43934980  -1.18982764
O    0.63114827   0.29105046   2.61203772
H   -0.22746145  -0.05941915   2.33206686
C    0.44679579   0.93232036   3.86396458
H    1.42346237   1.32122334   4.16456742
H    0.09814019   0.24208168   4.64804823
H   -0.25547661   1.77881319   3.80882206
O   -1.02997143  -1.93442660  -0.87571375
H   -1.40551116  -1.24528898  -1.44358919
C   -1.50421922  -3.18583137  -1.34646732
H   -1.07168457  -3.95067146  -0.69576107
H   -1.18881737  -3.39866765  -2.37990804
H   -2.60076679  -3.27244893  -1.29300565
O   -1.62514260   1.75712488   0.07947498
H   -0.67657006   1.93980533   0.15200948
C   -2.30314065   3.00310021   0.05952812
H   -3.37013588   2.77887173  -0.02249609
H   -2.01854738   3.62835060  -0.80119597
H   -2.14680288   3.58707588   0.98002161
O    0.43442714   1.17098799  -3.11427239
H    1.22893488   0.91182924  -2.62435661
C    0.41907474   2.58745708  -3.19117106
H   -0.48214440   2.86220678  -3.74597000
H    1.28909990   2.99349372  -3.73058537
H    0.36964785   3.06657719  -2.20082858
O    1.99159510  -2.11095453   1.94076303
H    1.68432898  -1.26620144   2.30187663
C    1.12174065  -3.12493685   2.41797038
H    1.48219997  -4.06956676   2.00176297
H    0.08070448  -2.98187767   2.08849337
H    1.13010831  -3.21035094   3.51588283
