45
Energy:   -371.95343218
O   -1.67854371  -0.05918035   1.86462090
H   -1.73921746   0.67286677   1.25089656
H   -1.60462069  -0.83397836   1.30743577
O    1.44446948  -1.59686950   0.83576748
H    0.57803809  -1.82754495   0.50062969
H    1.31711593  -1.49264780   1.77871539
O   -1.88074850  -0.31529528  -2.08020019
H   -1.98292247   0.42521351  -1.48233812
H   -1.02077962  -0.18436666  -2.47962863
O    0.64414226   2.51654950  -1.48521758
H    1.18876724   2.19169583  -0.76821997
H    0.65839905   1.81371254  -2.13487041
O    2.88577704  -0.83754974  -1.42481697
H    3.16182385  -0.00635712  -1.03861904
H    2.50288969  -1.32550284  -0.69575532
O    1.94571959   1.18365418   0.55025597
H    1.72297195   0.25701042   0.72385931
C    1.72315267   1.91142115   1.74748317
H    1.97890669   2.95285893   1.53421705
H    2.35832989   1.56723905   2.57866661
H    0.67261373   1.87831651   2.07619177
O   -1.14352185  -2.02590601  -0.05602493
H   -1.45830176  -1.54768119  -0.83745818
C   -1.61849047  -3.35955177  -0.14728045
H   -1.25488256  -3.88397587   0.74055616
H   -1.23691820  -3.88700794  -1.03552024
H   -2.71808317  -3.41988825  -0.15300188
O   -1.70006461   1.79790893  -0.22586953
H   -0.90503698   2.17903248  -0.62724117
C   -2.71802921   2.78516604  -0.26593520
H   -3.60618766   2.33931153   0.18999629
H   -2.97676217   3.08776417  -1.29271120
H   -2.45704691   3.68857470   0.30723001
O    0.73748804   0.10089435  -2.91510774
H    1.49906149  -0.31717762  -2.48656956
C    0.94451480   0.03821571  -4.31715805
H    0.07763437   0.51340285  -4.78427764
H    1.01024365  -0.99537635  -4.69151683
H    1.84647915   0.58221528  -4.63856451
O    0.54229373  -0.84566564   3.34284124
H   -0.28119708  -0.49189804   2.97523462
C    0.30414066  -1.16347069   4.70475785
H    1.24169472  -1.56051947   5.10329247
H   -0.47381746  -1.93243703   4.83223050
H    0.02405498  -0.28310684   5.30416491
