45
Energy:   -376.37111460
O   -2.95737006   0.25543067  -0.11179610
H   -2.37676328   0.90954529   0.27712764
H   -2.63141035  -0.58164444   0.21879030
O    1.84526478  -0.78702105  -0.96431734
H    1.30293271  -0.03318228  -1.19634079
H    1.55135647  -1.03324707  -0.08726403
O   -1.91037914  -0.05760579  -2.62602208
H   -2.42459849   0.06977167  -1.82878604
H   -1.47283911  -0.89919274  -2.49748423
O    0.19731963   1.27570187  -1.55242812
H   -0.21545391   1.59295551  -0.74918471
H   -0.52498008   0.91661410  -2.06776388
O    0.84150231  -1.33972447   1.48993238
H    0.82052215  -0.50203841   1.95261344
H   -0.07947659  -1.55905216   1.34877621
O    3.20755614   1.22032129   0.47593774
H    2.97909221   0.47202821  -0.09527586
C    3.44373937   2.34271752  -0.35891432
H    3.69973308   3.17643032   0.30053651
H    2.55702034   2.63085466  -0.94498912
H    4.28379148   2.18663350  -1.05370031
O   -1.65267245  -2.12799129   0.47822994
H   -1.26252524  -2.35767217  -0.37819001
C   -2.42862113  -3.23493552   0.90847627
H   -2.86070766  -2.95927445   1.87429064
H   -1.82694072  -4.14618045   1.05127219
H   -3.25494925  -3.46864713   0.21902862
O   -0.98168028   1.95315655   0.88743216
H   -0.30222258   1.81835073   1.56462334
C   -1.37021888   3.31678954   0.93300182
H   -2.13582426   3.45117095   0.16405759
H   -0.53860804   4.00357004   0.71044106
H   -1.80667910   3.60241045   1.90289898
O   -0.27836079  -2.27181883  -1.98287117
H    0.57256547  -1.87956703  -1.73693156
C   -0.08741304  -2.99218525  -3.18999376
H   -1.05545196  -3.42741635  -3.45259561
H    0.63883150  -3.81333529  -3.08483289
H    0.23460015  -2.34807860  -4.02318729
O    1.24678954   1.28720198   2.46247201
H    2.01322452   1.36970195   1.87579113
C    1.73176027   1.17394743   3.79082083
H    0.85557989   1.08188704   4.43836852
H    2.30223536   2.05941994   4.11218347
H    2.36108994   0.28248429   3.93919518
