45
Energy:   -373.31735826
O   -1.42429751  -0.31619525   1.26743546
H   -1.74337050   0.51467080   0.91517721
H   -1.37677858  -0.89652406   0.50770375
O    1.01637486  -2.93669814   0.00969316
H    0.27357759  -2.62072179  -0.50474149
H    0.66771539  -3.04218984   0.89487106
O   -1.34980577   0.63177310  -2.53230600
H   -1.63962026   1.15921670  -1.78796558
H   -0.40092221   0.75487926  -2.55870132
O    0.88940645   2.83705317  -0.25801252
H    1.13593783   2.25851019   0.46361214
H    1.13698714   2.35525585  -1.04719373
O    2.53113710  -0.67917315  -0.23831177
H    2.20243204  -0.19065726   0.51636502
H    2.11842458  -1.53974492  -0.16539772
O    1.09570370   0.80547952   1.67404519
H    0.22817377   0.37819436   1.61710227
C    1.14558507   1.51658817   2.90057286
H    2.12918320   1.99169326   2.94847970
H    1.04093626   0.85914806   3.77784047
H    0.38126492   2.30677357   2.96537310
O   -1.22022098  -1.72942362  -1.11661063
H   -1.30844009  -1.00529725  -1.75401290
C   -2.15240720  -2.73618081  -1.47716936
H   -2.03962436  -3.54404910  -0.74908005
H   -1.96358067  -3.15122561  -2.47959626
H   -3.19511506  -2.38408143  -1.43762602
O   -1.75919465   2.08274642  -0.14124064
H   -0.88470277   2.49899134  -0.16191433
C   -2.72679311   3.10510336  -0.31751676
H   -3.70579540   2.61892316  -0.29166092
H   -2.62780618   3.62206985  -1.28484533
H   -2.69906573   3.85964084   0.48415756
O    1.40087361   0.89149769  -2.21264123
H    1.85851455   0.27829548  -1.61852753
C    2.15714946   0.97588963  -3.40991255
H    1.62762508   1.67046419  -4.06767794
H    2.23939045   0.00866748  -3.93000393
H    3.17249664   1.36902308  -3.24470502
O   -0.30712768  -2.67544695   2.44984162
H   -0.82213335  -1.86619746   2.31453573
C    0.63831786  -2.41750903   3.47557772
H    1.20975792  -3.33917463   3.61512695
H    0.16442645  -2.16092884   4.43597912
H    1.34436612  -1.61481970   3.21107248
