45
Energy:   -371.46828431
O   -0.70952780  -0.76178195   2.48773919
H   -1.23908517  -0.01618995   2.20508496
H   -0.56302892  -1.26861055   1.68905609
O    1.61947213   0.61647983   2.15114277
H    1.26161721   1.22361021   1.50340486
H    0.86158096   0.11885810   2.45807180
O    1.73285376  -1.32377762  -1.77333703
H    2.28843917  -1.72420148  -2.44208021
H    2.31104476  -1.20680595  -1.01951700
O   -2.01284545   1.29277126   1.24534449
H   -2.35194846   0.67637289   0.59627281
H   -1.21250869   1.63994179   0.85143390
O    0.89465604   1.21580147  -2.45075552
H    1.19391574   0.32314987  -2.27798807
H   -0.04025755   1.12414853  -2.63451666
O    0.39951989   2.09179095   0.11549690
H    0.62599426   1.85622304  -0.79644629
C    0.69223564   3.46892990   0.28967957
H    0.43129829   3.71744952   1.32197550
H    0.10191851   4.11679187  -0.37708717
H    1.75911723   3.69883921   0.14242905
O   -2.69940906  -0.81525009  -0.47093842
H   -1.94841894  -1.41229465  -0.33686789
C   -3.82004414  -1.37738476   0.19292558
H   -4.65684091  -0.69233983   0.03177409
H   -3.66500111  -1.47746330   1.27861581
H   -4.10287366  -2.36250911  -0.20995756
O    3.14060344  -1.02166838   0.52993690
H    2.66626387  -0.46082086   1.16150265
C    4.46499310  -1.18661072   1.01089410
H    4.98513513  -1.82068828   0.28778753
H    4.50211204  -1.68602102   1.99170441
H    5.01218094  -0.23380232   1.08518377
O   -1.84907458   0.94539330  -2.52629292
H   -2.28821794   0.31314187  -1.93821596
C   -2.47333378   2.20643476  -2.34571424
H   -1.96659369   2.90660203  -3.01538989
H   -2.37483273   2.58622978  -1.31671929
H   -3.54220007   2.19361652  -2.61054982
O   -0.26547007  -2.13360201   0.04706039
H    0.38697818  -1.88558137  -0.62466895
C    0.17423972  -3.34047147   0.64926898
H   -0.57199802  -3.60543785   1.40319686
H    1.14696318  -3.23384493   1.15445922
H    0.24482480  -4.17274171  -0.06845056
