45
Energy:   -371.64816283
O   -1.63300735   1.20531361   0.27846838
H   -0.95366274   1.07250367   0.93959187
H   -1.22847193   1.78313905  -0.36860249
O    1.00608303  -1.79007886  -0.46825719
H    0.14917774  -1.56056474  -0.82779640
H    0.83517343  -1.98593199   0.45297205
O   -1.50991582  -1.02371380  -1.25090497
H   -1.63314544  -0.25184486  -0.69839737
H   -1.33406419  -0.66933722  -2.12252719
O    2.04895660   2.05290511   0.23033118
H    2.50535325   1.35330101  -0.23709588
H    1.56604124   1.60302152   0.92360556
O    3.04897398  -0.12456896  -1.08475199
H    2.33206090  -0.73005828  -0.89593946
H    3.83110858  -0.67615690  -1.10050221
O    0.45058790   0.63739088   2.04424884
H    0.44019758  -0.31825670   2.20253027
C    0.39338838   1.28330909   3.30601414
H    0.40595575   2.35876824   3.10925317
H    1.25674866   1.04326647   3.94614373
H   -0.52758571   1.04880009   3.86242188
O   -2.39960451  -2.45712988   1.01920289
H   -2.25413610  -2.14697918   0.11307445
C   -3.50118332  -1.73711972   1.54896063
H   -3.65123011  -2.09881169   2.56981816
H   -4.43183565  -1.90872194   0.98574108
H   -3.31771587  -0.65221108   1.59468009
O   -0.00396252   2.57812371  -1.53612864
H    0.78626382   2.49182934  -0.98248716
C   -0.07769254   3.92547562  -1.97401045
H   -0.97325930   4.00503886  -2.59619616
H    0.78953432   4.22229260  -2.58441572
H   -0.17649124   4.63863244  -1.14068968
O   -0.62003632   0.50391496  -3.38388082
H   -0.40982876   1.30127470  -2.87549759
C    0.58839942   0.02431965  -3.95151201
H    0.33345048  -0.87381463  -4.52058234
H    1.33452163  -0.25388281  -3.19080025
H    1.04970792   0.74693575  -4.64274119
O    0.11783662  -2.16461815   2.17984271
H   -0.79651683  -2.35633181   1.92366521
C    0.66621238  -3.34873119   2.73634438
H    1.69614830  -3.11509611   3.01942006
H    0.69042133  -4.18406069   2.01911647
H    0.13108488  -3.68157346   3.63946780
