45
Energy:   -372.29476842
O   -2.05377329  -0.39702624   0.88576751
H   -1.84811162   0.52562591   0.73527452
H   -2.38382669  -0.70981561   0.04347338
O    0.31929209  -1.68869367   0.79987996
H    0.10653292  -2.43034475   0.23338277
H   -0.51492319  -1.23692199   0.92723407
O   -2.58121798  -1.23128546  -1.71317992
H   -2.02048389  -0.50010346  -1.97237484
H   -3.37460793  -1.12291709  -2.23760392
O    1.13676548   2.85398956   1.47064724
H    1.23937406   2.03784025   1.96014048
H    1.75809346   2.77917206   0.74636433
O   -0.97948686   0.86865484  -2.18864210
H   -1.10586832   1.45352625  -1.44152429
H   -0.09142720   0.52851532  -2.07961457
O    2.78906421   2.06488572  -0.62004848
H    2.37179254   1.27757206  -1.00010745
C    3.93679839   1.63989709   0.09732500
H    4.39459779   2.53894924   0.51876317
H    4.68212646   1.14689542  -0.54626862
H    3.69133446   0.96019118   0.92830314
O   -0.75482998  -3.32732670  -1.15372538
H   -1.43007386  -2.70905257  -1.47027882
C   -1.42264243  -4.47277979  -0.64924790
H   -0.64743575  -5.15866250  -0.29696291
H   -2.01482629  -4.99292186  -1.41836938
H   -2.08397634  -4.23986338   0.19996629
O   -1.24216104   2.18911656   0.25241290
H   -0.42659586   2.48842156   0.68100740
C   -2.15743935   3.27293247   0.26434907
H   -3.07029725   2.91859256  -0.22208579
H   -1.78921748   4.14667233  -0.29580148
H   -2.41800565   3.59826818   1.28368180
O    1.40832330  -0.30419819  -1.36810746
H    1.10634652  -0.80456946  -0.59553909
C    1.95863135  -1.22947373  -2.29199057
H    2.29375406  -0.64916769  -3.15594825
H    1.22216307  -1.96937798  -2.64260932
H    2.82791033  -1.76999785  -1.88583167
O    1.28935156   0.31060802   2.55235621
H    1.10497007  -0.48837501   2.03655309
C    0.40424978   0.32103734   3.66096789
H    0.62549495   1.22740105   4.23109121
H    0.54659590  -0.54442618   4.32691670
H   -0.65435885   0.35718874   3.35960736
