45
Energy:   -378.87349515
O   -1.93498477  -0.71312065   1.71254107
H   -1.93826214   0.08079963   1.17783397
H   -1.93481876  -1.42980413   1.07803605
O    1.18624671  -2.59717331   0.34288307
H    0.27191439  -2.77171108   0.11980277
H    1.14579700  -2.14878074   1.18759590
O   -1.03880950  -0.36687276  -1.97335442
H   -0.09701039  -0.36510714  -1.80234810
H   -1.38963764   0.30735182  -1.39148443
O    0.44154451   3.15394723  -0.16324474
H    0.96724985   2.59363058   0.40764141
H    0.80349826   3.01228662  -1.03797533
O    1.58976686  -0.36036252  -1.18160450
H    1.69841702   0.23295772  -0.43836963
H    1.58211141  -1.23452703  -0.79172034
O    1.80418438   1.13063240   1.17120113
H    1.49723170   0.47313342   1.81299426
C    3.18036499   1.36696001   1.42182030
H    3.50988900   2.10972393   0.69024606
H    3.79727432   0.46385293   1.29298780
H    3.36558865   1.77362292   2.42834641
O   -1.52556751  -2.54509212  -0.37160909
H   -1.45342157  -1.86774053  -1.06038558
C   -2.19671053  -3.66118999  -0.93412697
H   -2.26942789  -4.41450015  -0.14500011
H   -1.64875207  -4.10481642  -1.78012605
H   -3.21717838  -3.41886315  -1.26983579
O   -1.75274168   1.48249060  -0.02053483
H   -1.04782466   2.14668660  -0.03948104
C   -2.99315399   2.17059125  -0.04123665
H   -3.77604663   1.40764299  -0.01945891
H   -3.12963209   2.77386024  -0.95239942
H   -3.13060494   2.82582559   0.83315029
O    1.51738899   2.15811312  -2.52244170
H    1.70182140   1.22857457  -2.32152864
C    0.76021850   2.19728594  -3.72147970
H    0.56127505   3.25138326  -3.93310566
H   -0.20712315   1.67884317  -3.63068018
H    1.30253287   1.77298989  -4.58092447
O    0.65593212  -1.00533785   2.60789561
H   -0.28887880  -0.88200228   2.43312735
C    0.78127664  -1.62916152   3.87583352
H    1.85152838  -1.76060157   4.05685819
H    0.30478988  -2.62139796   3.91054032
H    0.36939129  -1.01710737   4.69346272
