45
Energy:   -372.10565440
O   -1.93684976   0.99918247   1.57922266
H   -1.92866555   1.83728956   1.11690093
H   -2.17018417   0.35738064   0.90849372
O    1.38734202  -2.17597669   1.49844165
H    0.55281704  -2.55929041   1.22849630
H    1.14618035  -1.35862354   1.93433926
O   -1.75391379   3.19881398  -0.04788506
H   -1.00702646   2.92387567  -0.57967458
H   -1.72249560   4.15532076  -0.06631106
O    0.38165550   2.31624714  -1.45530653
H    1.08060246   2.13244637  -0.82767426
H    0.17603211   1.46494831  -1.84162398
O    2.22538356  -1.08329132  -0.84759467
H    2.39239601  -0.20206309  -0.51326625
H    2.01138459  -1.59850410  -0.06978230
O    2.19360416   1.40267802   0.46110366
H    1.70435200   1.10998244   1.24429259
C    3.51039814   1.73131417   0.87412382
H    4.04756302   2.05892471  -0.02008557
H    4.04963752   0.87082211   1.30021258
H    3.53362405   2.55329654   1.60664199
O   -1.05994710  -2.93237231   0.47519275
H   -1.66552441  -2.24186796   0.16712922
C   -0.77550682  -3.77863255  -0.62729131
H   -0.09230694  -4.55053933  -0.26276002
H   -0.27980702  -3.24705060  -1.45462418
H   -1.67390809  -4.27732911  -1.02346581
O   -2.33002060  -0.64845181  -0.67109913
H   -1.60028355  -0.50387601  -1.29158680
C   -3.47543808   0.00517600  -1.19390239
H   -4.28778425  -0.16775513  -0.48279499
H   -3.78566499  -0.39706122  -2.17101130
H   -3.33552538   1.09287584  -1.29445496
O   -0.02427545  -0.34433001  -2.25438457
H    0.76154305  -0.70893616  -1.82082384
C    0.16035952  -0.46881948  -3.65543634
H   -0.73372386  -0.05345174  -4.12826798
H    0.26253982  -1.51635884  -3.97947000
H    1.03300756   0.09470811  -4.02108559
O    0.57364444   0.31593292   2.49662894
H   -0.33024957   0.56242075   2.25037170
C    0.59839909   0.11838201   3.90122661
H    1.62359709  -0.15858714   4.16150023
H   -0.06837315  -0.69485368   4.22809024
H    0.33754770   1.02873824   4.46335242
