45
Energy:   -376.21815669
O   -0.75248040   0.54939973   2.55313546
H   -1.05568017   1.14461679   1.86755658
H   -1.06019409  -0.31334527   2.27525924
O    2.83045818  -1.04253537   0.04886575
H    2.18573283  -1.74025250   0.16613421
H    2.61526038  -0.40070090   0.72560075
O   -2.54956654  -0.14539309  -0.83020195
H   -2.25417719   0.68326415  -0.45296971
H   -1.93187315  -0.31949091  -1.54039677
O    1.34169327   2.28995514  -0.54051499
H    1.66197597   1.92725225   0.28537692
H    1.62178342   1.65955706  -1.20412603
O    2.15836457   0.23944331  -2.20530930
H    2.96023966   0.30748583  -2.72357409
H    2.41236143  -0.27035415  -1.43600833
O    1.89355791   0.89252853   1.82100980
H    1.01327000   0.73521524   2.19352691
C    2.79404499   1.06688747   2.90325550
H    3.78053704   1.24299720   2.46587237
H    2.86066572   0.17702062   3.54860503
H    2.53981818   1.93420179   3.53247082
O    0.72807662  -2.78286057   0.35477558
H   -0.11170391  -2.50932770   0.75273501
C    0.43002803  -3.46663752  -0.85193478
H    1.38687946  -3.76767132  -1.28702004
H   -0.09246281  -2.83037718  -1.58333988
H   -0.17152696  -4.37454759  -0.68881446
O   -1.29881637   2.08265884   0.27687003
H   -0.41795378   2.23644453  -0.09576160
C   -1.93220180   3.34405142   0.41915647
H   -2.92298244   3.15239629   0.83999757
H   -2.06453699   3.86431668  -0.54239893
H   -1.39349982   4.01530476   1.10617646
O   -0.54708239  -0.39226233  -2.72181537
H    0.39939801  -0.23811572  -2.58456756
C   -0.97842119   0.47449429  -3.75874042
H   -2.04640098   0.28780262  -3.90034058
H   -0.46816306   0.28026190  -4.71513352
H   -0.84848063   1.53830065  -3.50534586
O   -1.74217018  -1.73289671   1.27070200
H   -2.11643544  -1.26014079   0.51251296
C   -2.80187431  -2.42334164   1.91323350
H   -2.36281468  -2.95031804   2.76470735
H   -3.28099971  -3.16946439   1.26015080
H   -3.58073585  -1.74540527   2.29605764
