45
Energy:   -374.70599177
O    0.43088937   1.96657031   0.64233201
H    1.13609151   1.80539543   0.01547919
H   -0.33114986   2.16876215   0.09951849
O   -1.66889305   2.32066103  -1.14572425
H   -2.28287175   3.03579214  -1.31260594
H   -2.22559258   1.55711778  -0.99301803
O   -0.06104679   0.82316433  -2.83320149
H   -0.32554467  -0.03467810  -2.50096802
H   -0.63768713   1.44217756  -2.38538414
O   -0.08221353  -0.15368478   2.28179113
H    0.23553119  -0.87060973   1.73289337
H    0.10921061   0.63733903   1.77793602
O   -3.06568027   0.06261883  -0.77517289
H   -2.39123769  -0.55305225  -1.06206693
H   -3.12427539  -0.06939029   0.17106812
O   -2.82735905  -0.24778307   1.94161728
H   -1.88552713  -0.24025137   2.16815468
C   -3.53331713   0.35188033   3.01612216
H   -4.59228394   0.33517065   2.74446927
H   -3.24066814   1.40005078   3.18486042
H   -3.41494011  -0.19861082   3.96254898
O    2.24454541   1.31241202  -1.39800135
H    1.53073121   1.11938705  -2.02380796
C    3.09101553   2.28111915  -1.99602193
H    3.88936620   2.48693143  -1.27785572
H    2.57022103   3.22797915  -2.20816943
H    3.55465286   1.92305086  -2.92854799
O    3.31990602  -0.62896856   0.35133955
H    3.09705415   0.05600251  -0.29640651
C    3.54271322   0.01260555   1.59684080
H    3.79252174  -0.77328011   2.31479945
H    2.65151838   0.54287118   1.96747194
H    4.38220105   0.72462739   1.56424583
O   -0.85014691  -1.48810554  -1.47530336
H   -0.25255838  -1.77896432  -0.77052510
C   -1.25237304  -2.63892538  -2.20081120
H   -1.92490541  -2.29325607  -2.99055682
H   -1.80044549  -3.36375854  -1.57870927
H   -0.40617915  -3.15903706  -2.67643401
O    0.97325489  -2.12349637   0.57872353
H    1.86043631  -1.74436656   0.49158582
C    1.08068738  -3.29116413   1.37718708
H    0.07265133  -3.70541735   1.46518024
H    1.45264242  -3.07968772   2.39193065
H    1.72679602  -4.05878201   0.92322262
