45
Energy:   -370.86072582
O    0.54273234   0.52765155   3.61584469
H   -0.18382559   0.84765091   3.08110566
H    0.39219437   0.91151937   4.47968245
O    1.96135655  -0.03425620   1.34394420
H    1.52503908   0.63576213   0.81769867
H    1.64468018   0.11622736   2.23461957
O    0.87556174  -1.79816318  -2.13727569
H    1.79193126  -1.61987258  -1.92582542
H    0.47434653  -2.02075729  -1.29721017
O   -1.33721867   1.38725841   1.85818085
H   -1.82308087   0.61864233   1.55918403
H   -0.74757595   1.59533094   1.13343321
O   -0.01319496   0.71953019  -2.71435515
H    0.27976108  -0.18944466  -2.64975385
H   -0.95285355   0.68209262  -2.53582785
O    0.50846474   1.72305877  -0.20961545
H    0.33547424   1.41666061  -1.11217721
C    0.88810083   3.08794500  -0.28374915
H    1.07920269   3.41699363   0.74128366
H    0.09671236   3.72714283  -0.70554029
H    1.80815961   3.24223683  -0.86895271
O   -2.34889867  -0.95446153   0.72518622
H   -1.52994096  -1.47115061   0.69754704
C   -3.43258026  -1.86818390   0.78245252
H   -4.34699445  -1.26952138   0.81303156
H   -3.40833958  -2.50067692   1.68364190
H   -3.48315304  -2.52379426  -0.10094703
O    3.27568884  -1.00493888  -0.97666013
H    3.05286771  -0.68215425  -0.09089261
C    3.68038297   0.11167618  -1.75249982
H    3.92768023  -0.26974968  -2.74690597
H    4.57423674   0.61033384  -1.34612155
H    2.88341246   0.86350439  -1.86371893
O   -2.55442938   0.63177903  -1.62472778
H   -2.60978745   0.07042839  -0.83717193
C   -3.14813210   1.88018055  -1.30606729
H   -3.07724100   2.50007769  -2.20394657
H   -2.62700960   2.40256470  -0.48855676
H   -4.21221719   1.78879743  -1.03746093
O    0.21239409  -2.08637278   0.60064470
H    0.84583742  -1.43256090   0.93185892
C    0.74706751  -3.37425310   0.86145570
H    0.02109935  -4.09851688   0.48211758
H    0.89028783  -3.56550218   1.93648550
H    1.70478931  -3.54929299   0.34676423
