45
Energy:   -372.30808511
O   -1.95032598   0.31107492   1.93207789
H   -1.99702369   1.02857014   1.30021415
H   -1.86014907  -0.47614395   1.39506167
O    1.34769476  -2.12800957  -0.09454671
H    1.59930563  -1.34127279  -0.57825020
H    1.75838814  -2.02364227   0.76374826
O   -2.44059313   0.06508171  -1.65209008
H   -2.19000325  -0.63500958  -1.04933910
H   -2.21929635   0.87227461  -1.18765579
O    1.21462441   2.14021799   0.39907017
H    1.18817336   1.64496388   1.21776154
H    1.50631172   1.50594058  -0.25579054
O    2.33006457  -1.52098177   2.38676766
H    1.80313285  -0.73974218   2.55481381
H    2.50121875  -1.88629726   3.25480147
O    1.79448403   0.22659287  -1.52273815
H    1.15384627   0.10423559  -2.23900292
C    3.07634633   0.37409728  -2.11231873
H    3.78574503   0.51091245  -1.29163591
H    3.14267515   1.25404200  -2.77116249
H    3.38520585  -0.51367808  -2.68611141
O   -1.38148242  -1.76708793   0.16056407
H   -0.43659232  -1.96546309   0.08148646
C   -2.06463868  -2.99555144   0.35215919
H   -3.12738568  -2.75375457   0.43927006
H   -1.75602830  -3.51461020   1.27309077
H   -1.94039255  -3.68787357  -0.49520749
O   -1.50683669   2.19500394  -0.10216982
H   -0.54990543   2.29030408   0.01455084
C   -1.99546574   3.40575548  -0.65701767
H   -3.07452281   3.28114604  -0.78189171
H   -1.56082840   3.62692677  -1.64441373
H   -1.82573778   4.27341201  -0.00040370
O   -0.25450500  -0.33891913  -3.32359723
H   -1.09935490  -0.15841056  -2.88534094
C   -0.18860383  -1.73382877  -3.57343298
H    0.76904402  -1.91963752  -4.06726586
H   -0.99086030  -2.08457308  -4.24137035
H   -0.21844924  -2.33310653  -2.64998686
O    0.66587442   0.65681158   2.73859135
H   -0.27610128   0.50984269   2.56682054
C    0.76952599   1.63650677   3.75936923
H    1.83685631   1.78991540   3.94035814
H    0.30551271   1.31584384   4.70522560
H    0.33042230   2.60323140   3.46712145
