45
Energy:   -371.65268419
O   -2.06226043   2.36260954  -0.18137726
H   -1.24118751   2.46493084  -0.66262715
H   -2.53788316   3.17755465  -0.34224782
O   -1.08660300   1.70948391   2.33128475
H   -1.43227252   2.02437657   1.49606798
H   -0.14011601   1.83413485   2.26159711
O   -0.86819092  -0.90324641   1.60959660
H   -0.99989962  -0.04577108   2.01409717
H   -1.41223571  -0.88331083   0.82229126
O   -0.82352003  -1.96484014  -2.45081307
H   -0.36984034  -2.56147637  -1.85547133
H   -1.43475578  -1.48602937  -1.89102476
O    1.65902408  -0.87645734   0.67877550
H    0.77210720  -0.90937760   1.03728149
H    1.54443773  -0.55658031  -0.21608790
O    0.30031888   2.46697062  -1.50594504
H    0.68973661   1.61519067  -1.75342840
C    1.35749093   3.32251956  -1.10226567
H    0.90127416   4.27727904  -0.82697346
H    2.08350372   3.51098230  -1.90859348
H    1.90328615   2.93964110  -0.22574471
O    1.21034164  -0.16246302  -1.97957402
H    0.50942240  -0.75609527  -2.28736653
C    2.40324403  -0.51488374  -2.66171572
H    3.18224775   0.16343443  -2.30321486
H    2.32069171  -0.39350912  -3.75315085
H    2.72511332  -1.54659694  -2.45018471
O   -2.33274587  -0.39894890  -0.70606325
H   -2.35578900   0.56527316  -0.61568566
C   -3.66291898  -0.87516968  -0.57805131
H   -3.61866457  -1.96266764  -0.68233428
H   -4.33176152  -0.48411277  -1.36067604
H   -4.10467284  -0.64408144   0.40390036
O    1.67828375   1.55687230   2.04680476
H    1.84925127   0.72358222   1.58331687
C    2.20044799   1.43390917   3.36010532
H    1.99936336   2.38101292   3.86808628
H    3.28862582   1.26500679   3.37098273
H    1.71803342   0.62857464   3.93585685
O    0.71683813  -3.23755185  -0.53322716
H    1.21109544  -2.58357156  -0.01704622
C    0.10506481  -4.13391991   0.38044209
H   -0.44737761  -4.86370520  -0.21764318
H   -0.60875823  -3.63369222   1.05349949
H    0.83750414  -4.68048818   0.99491185
