45
Energy:   -371.57336845
O   -2.38453867  -0.38466922   1.90600253
H   -2.42559664   0.47333353   1.48365506
H   -2.28892433  -1.00399215   1.18244960
O    0.64430054  -2.68235309   1.04386273
H   -0.21539734  -2.62796839   0.62649753
H    0.61728533  -2.02170098   1.73599047
O   -0.25912668  -0.43766710  -2.10322190
H    0.54908110  -0.80479524  -1.74510327
H   -0.31475655   0.43822856  -1.72119577
O    0.10929189   2.11608930  -1.10855156
H    0.73687491   1.83566969  -0.44241625
H    0.62769351   2.19265100  -1.90956960
O    1.99076227  -1.24522449  -0.84827754
H    2.08480165  -0.45021586  -0.32353977
H    1.65015881  -1.89775998  -0.23638004
O    1.72801292   0.97813260   0.82897050
H    1.26865138   0.56553888   1.57541318
C    2.82155252   1.71577708   1.35106778
H    3.32784387   2.17385235   0.49706467
H    3.54976158   1.08036397   1.87902523
H    2.50480728   2.52101464   2.03227424
O   -1.71309680  -1.96862568  -0.29702958
H   -1.33403554  -1.45549167  -1.02602157
C   -2.61527934  -2.90965033  -0.85655888
H   -3.03306936  -3.47902704  -0.02184524
H   -2.12124154  -3.61815034  -1.53973655
H   -3.44869264  -2.43165904  -1.39481897
O   -2.21122221   1.94894428   0.46232242
H   -1.45223725   2.17112719  -0.09714148
C   -3.37556020   2.45435458  -0.17124781
H   -4.22083271   2.19539038   0.47213165
H   -3.54995561   2.00496248  -1.16140453
H   -3.35626255   3.54953154  -0.28523185
O    1.43939913   1.41447014  -3.45870921
H    0.88598744   0.62212756  -3.39273941
C    2.77815508   0.98913759  -3.65709897
H    3.38781470   1.89390011  -3.72924555
H    2.90836344   0.41465311  -4.58757771
H    3.16107064   0.38536016  -2.81947983
O    0.24018686  -0.46842223   2.73647914
H   -0.70910428  -0.38311257   2.56329757
C    0.40030946  -0.78667966   4.10965311
H    1.47517085  -0.87913675   4.28744477
H   -0.07433049  -1.74210643   4.38288180
H    0.01028460  -0.00173548   4.77637688
