45
Energy:   -370.94666981
O   -3.09479702   0.06715557  -1.32209637
H   -2.61890226   0.21181707  -2.13991608
H   -2.77962337   0.75526403  -0.73608940
O    0.17779711  -1.74636565   1.97629584
H    1.00920446  -1.68384208   1.50609964
H   -0.47719467  -1.87292146   1.28985485
O    0.52099745  -1.12196897  -1.80786119
H    0.47055314  -0.17915022  -1.65044444
H   -0.19712693  -1.49000220  -1.29300124
O    0.30166779   1.58525994  -1.34926249
H   -0.41465270   1.76311188  -0.73976640
H    1.09458923   1.67648526  -0.82088252
O   -1.30144026   0.43125595  -3.37516091
H   -0.76202012  -0.35309891  -3.27493510
H   -0.79692879   1.12530541  -2.95090230
O    2.55068995   1.34102092   0.23421979
H    2.64208671   0.39059280   0.39779333
C    3.80884487   1.82457216  -0.20822588
H    3.68801870   2.89632006  -0.38778836
H    4.13770273   1.35577473  -1.14889522
H    4.60343885   1.69167630   0.54259794
O   -1.57911611  -1.93529045  -0.19234552
H   -2.23118304  -1.29935900  -0.52222913
C   -2.23139671  -3.18730341  -0.05260527
H   -1.48269747  -3.89176884   0.31976968
H   -2.61856738  -3.57408927  -1.00825839
H   -3.06075417  -3.15626125   0.67125931
O   -1.82073537   1.84166213   0.41016791
H   -1.51430527   1.53079521   1.27497172
C   -2.64136635   2.97828810   0.62737744
H   -2.97786124   3.31551463  -0.35676414
H   -2.09933530   3.80892143   1.10594609
H   -3.53232734   2.75002443   1.23306839
O    2.36221996  -1.49303022   0.22156149
H    1.83830058  -1.47322993  -0.59301798
C    3.10599740  -2.70105002   0.22569033
H    3.69029642  -2.70706777   1.14983515
H    3.80615964  -2.77223598  -0.62135319
H    2.46393036  -3.59576397   0.22192099
O   -0.70847034   0.78648803   2.73017188
H   -0.40120339  -0.12458183   2.61201092
C    0.36513275   1.53528997   3.27716898
H    0.00189845   2.55877161   3.40378403
H    1.24423436   1.56456506   2.61452227
H    0.68511436   1.16223978   4.26267527
