45
Energy:   -371.49635311
O   -1.44688642   0.05054392   0.77626122
H   -1.83178354   0.66081706   0.14725188
H   -1.40944667  -0.78396527   0.30890212
O    1.27140894  -2.34457892   0.52766515
H    0.45318971  -2.51258143   0.06019933
H    0.99619690  -2.07533829   1.40402105
O   -0.58628862  -0.34864493  -2.70993876
H    0.27269793  -0.25819942  -2.29739352
H   -1.09926308   0.37892181  -2.35817791
O    0.83549479   1.65605870   0.67500983
H    1.39170474   1.45862257   1.42858884
H    0.04670967   1.13220979   0.81512476
O    1.65931726  -0.18940590  -1.15304192
H    1.47594601   0.51940512  -0.53644337
H    1.68300635  -0.97838521  -0.61157879
O    2.27989485   0.59550958   2.77277914
H    1.65856010  -0.11224501   2.99960469
C    3.47428384  -0.01282102   2.30812594
H    4.16297280   0.79846164   2.05710171
H    3.31785787  -0.62020236   1.40292091
H    3.95469493  -0.64446645   3.07167462
O   -1.17089784  -2.24003625  -0.80931273
H   -1.03042563  -1.70940657  -1.60751256
C   -1.73425169  -3.47893668  -1.20967749
H   -1.88595782  -4.06410796  -0.29860942
H   -1.07127523  -4.05172695  -1.87687375
H   -2.71005125  -3.36160197  -1.70649247
O   -1.99706853   1.71152782  -1.40611221
H   -1.38408037   2.46105238  -1.43580588
C   -3.17894747   2.09468150  -2.09086706
H   -3.85833692   1.23907347  -2.04785447
H   -2.99790434   2.33390676  -3.15047642
H   -3.68251042   2.95436823  -1.62167585
O    0.13735496   3.50489835  -1.32960457
H    0.52757841   3.07655779  -0.55328421
C    1.03154891   3.32400465  -2.41598775
H    0.57663694   3.81245174  -3.28198990
H    1.18814194   2.26292277  -2.66571001
H    2.01449473   3.78817279  -2.23951457
O    0.08023531  -1.20024795   2.80500997
H   -0.60830377  -0.73140772   2.31051421
C   -0.48794374  -1.63015775   4.03174707
H    0.30099082  -2.15623869   4.57608732
H   -1.32827102  -2.32765074   3.88986353
H   -0.83369922  -0.79216241   4.65704243
