45
Energy:   -372.95376096
O    0.29541107  -1.64208754   2.19112619
H   -0.44463978  -1.08034729   1.96089916
H    1.05854730  -1.19631407   1.82351095
O    2.29293590  -0.30432341   0.89431527
H    2.36199386  -0.45762710  -0.04800146
H    2.10528043   0.63106791   0.97216353
O   -0.01809497  -1.88400364  -2.26109727
H   -0.11555601  -2.47571285  -1.51503199
H   -0.60458544  -1.15312776  -2.06595315
O    1.04931195   1.91380216  -1.70497731
H    1.28093883   2.19366147  -0.81939298
H    1.58674122   1.13691998  -1.85943025
O    2.28773052  -0.55668283  -1.86768244
H    1.50805256  -1.08398283  -2.04171932
H    2.96446855  -0.93679846  -2.42783385
O    1.50626317   2.37619254   1.00668145
H    0.64224917   2.49497638   1.42833710
C    2.47101150   3.03949637   1.80781968
H    3.43816467   2.89569641   1.31851250
H    2.53784097   2.62307697   2.82512300
H    2.28612716   4.12223539   1.88701143
O   -0.20146867  -3.32780389   0.06275523
H   -0.01338249  -2.82764822   0.87077204
C    0.36874823  -4.61811687   0.21268480
H    0.14758698  -5.16801313  -0.70611170
H   -0.06203409  -5.17784195   1.05761779
H    1.46249232  -4.58779478   0.33751176
O   -1.11683075   2.44237609   1.95695930
H   -1.47428713   1.54623102   1.86994073
C   -1.87512521   3.29225183   1.11124391
H   -1.45924019   4.29742408   1.22148733
H   -2.93958323   3.33065193   1.39094355
H   -1.80484844   3.00828017   0.04954781
O   -1.32126143   0.50831918  -1.56952661
H   -0.55045897   1.09019240  -1.64509376
C   -2.19869889   0.81488028  -2.64128105
H   -3.06128537   0.15052799  -2.54095259
H   -1.74333542   0.63647071  -3.62798844
H   -2.56243900   1.85384135  -2.60918169
O   -1.85429105  -0.17393515   1.11221563
H   -1.73611966  -0.01139432   0.16456629
C   -2.88690463  -1.13562373   1.25849630
H   -3.00691987  -1.30694504   2.33168340
H   -2.64126744  -2.09878399   0.78440557
H   -3.85202284  -0.78748904   0.85833831
