45
Energy:   -371.64600695
O   -1.68452511  -0.53704567   1.80164055
H   -1.76735634   0.29709597   1.33949494
H   -1.59501765  -1.18877974   1.10632554
O    1.46111917  -2.18820657   0.42260097
H    0.56946184  -2.27989450   0.08678499
H    1.34832155  -1.99324262   1.35292221
O   -1.85547898  -0.01717116  -2.05896430
H   -2.00887022   0.58466234  -1.33061039
H   -0.99357241   0.22803571  -2.39544982
O    0.28275626   3.03726277  -1.08942653
H    1.01830033   2.87953689  -0.49754028
H    0.38013908   2.37612505  -1.77473328
O    2.80551601  -0.41207554  -1.08256084
H    3.67999922  -0.78234082  -1.20262155
H    2.34194152  -1.05897651  -0.55072470
O    2.31905234   1.93426309   0.43496886
H    2.59997255   1.12896008  -0.02437217
C    1.67908660   1.54212943   1.63879976
H    1.36907483   2.46114451   2.14356622
H    2.34910840   0.98992042   2.31623118
H    0.78094488   0.92960151   1.46293526
O   -1.18498278  -2.13972274  -0.43832986
H   -1.46113808  -1.49852726  -1.10991745
C   -1.90405989  -3.34076204  -0.66847437
H   -1.58095094  -4.05189393   0.09662513
H   -1.69170220  -3.78109294  -1.65528248
H   -2.99331363  -3.20902161  -0.57388005
O   -1.79748313   1.71792722   0.15712680
H   -1.09420142   2.28303255  -0.19568204
C   -2.92077042   2.54307597   0.42149202
H   -3.70340234   1.89068754   0.81818058
H   -3.31121963   3.03284675  -0.48429566
H   -2.71030197   3.31983546   1.17324003
O    0.75556948   0.73813494  -2.64274408
H    1.49681733   0.30590638  -2.19312940
C    1.18805097   1.08658352  -3.94814713
H    0.34116189   1.57223487  -4.44049543
H    1.47532648   0.20964973  -4.54917730
H    2.03129735   1.79487240  -3.94184327
O    0.68052415  -1.41113119   2.96911255
H   -0.18322962  -1.05371642   2.71493270
C    0.58894067  -1.83947762   4.31843296
H    1.57018050  -2.23915935   4.58844796
H   -0.15601136  -2.63781972   4.46151931
H    0.35334058  -1.01619936   5.01087995
