45
Energy:   -376.13212102
O   -2.33940371  -0.38627198   1.50597801
H   -2.33260472   0.38015186   0.93258450
H   -2.13006993  -1.12013324   0.92817280
O    1.05658849  -2.23556765   0.89995243
H    0.21779992  -2.34667253   0.45237976
H    0.87081626  -1.61921255   1.60834985
O   -1.48332868  -0.22552481  -2.31166366
H   -1.83417932   0.44629126  -1.72702802
H   -0.55510727  -0.00807712  -2.39741541
O    0.48339305   2.69458686  -0.76596376
H    0.90710757   2.53683265   0.07772544
H    0.78419951   1.97700784  -1.32348297
O    2.81775958  -1.52010670  -1.01956375
H    3.39602780  -2.27402861  -1.13549249
H    2.22298364  -1.77980201  -0.31597881
O    1.58627603   1.83899051   1.61060598
H    1.13413900   1.11936168   2.07550352
C    2.91999570   1.42219030   1.36565047
H    3.41482027   2.24433749   0.84152467
H    2.97520486   0.52730019   0.72619681
H    3.47999575   1.22203654   2.29253544
O   -1.40348345  -2.21251270  -0.40287640
H   -1.44796100  -1.61702516  -1.16566052
C   -2.17237986  -3.36431224  -0.71059363
H   -2.11144826  -4.02425546   0.15903129
H   -1.78547518  -3.91316103  -1.58343216
H   -3.23392888  -3.13176714  -0.88895783
O   -2.04303015   1.68292564  -0.33381436
H   -1.19866573   2.14761228  -0.43147870
C   -3.07299941   2.65845541  -0.32758817
H   -4.01697069   2.11795202  -0.21686548
H   -3.11786608   3.23545862  -1.26451485
H   -2.98395273   3.36550658   0.51201093
O    1.22509530   0.42788012  -2.22434688
H    1.82734923  -0.23342847  -1.85234632
C    1.78194172   0.87623572  -3.44967666
H    1.09105836   1.62043519  -3.85505616
H    1.88618431   0.06798067  -4.19037537
H    2.76404544   1.35722786  -3.31969138
O    0.13590388  -0.32372880   2.72277964
H   -0.78025286  -0.30347451   2.40866204
C    0.10384053  -0.38598566   4.13968818
H    1.14372508  -0.40811803   4.47678681
H   -0.39583987  -1.29305474   4.51428464
H   -0.38336834   0.49147355   4.59297639
