37
Energy:  -1647.37142136
O    1.35041811   0.88410032  -0.30433643
H    1.44235275   1.80973351  -0.07854212
H    2.12490438   0.46695697   0.07301524
O   -1.98151191  -1.55043663  -0.61242548
H   -1.84090166  -2.48995852  -0.72972514
H   -2.92315997  -1.46551432  -0.46303013
O   -1.56431479   1.36103921  -0.66711748
H   -1.68768822   2.01574632   0.02017389
H   -1.92288545   1.76965322  -1.45495853
O    1.37262304   3.49623552   0.67069790
H    1.31733516   4.25282240   0.08695875
H    2.07678635   3.71498675   1.28105335
O    1.36271878  -1.22582300   3.34632741
H    1.58535717  -0.67530096   4.09705337
H    1.27001046  -2.10524723   3.71272888
O   -0.95317577  -4.11706604  -0.85879212
H   -0.96585232  -4.58853069  -1.69173404
H   -1.16555138  -4.78173778  -0.20355175
O   -1.03967747   2.54818940   1.77435395
H   -1.52153273   3.08471041   2.40379224
H   -0.25304173   3.05696431   1.57792546
O    0.82877253  -1.97155877  -0.41307863
H    0.57552921  -2.88799675  -0.52371818
H    1.69552777  -2.00923508  -0.00866833
O    2.95413834  -0.95912923   1.03714701
H    2.64621045  -1.07056519   1.93658811
H    3.89773562  -1.11238833   1.08580566
O   -0.49890206  -0.17731373   1.55484081
H    0.02900099  -0.58846491   2.23931501
H   -0.76246361   0.66391099   1.92781283
O   -0.18604091  -0.24869580  -2.57077030
H    0.41663918  -0.61497125  -3.21795718
H   -0.74868526   0.34052491  -3.07324631
O   -1.97569477   1.68601247  -3.44243111
H   -1.66024920   2.43623490  -3.94630832
H   -2.80929584   1.45503705  -3.85229871
Ca  -0.34391028  -0.28545465  -0.50505689
