37
Energy:  -1653.05908682
O    1.96594947   0.88701540   0.86807505
H    2.60478492   0.72001751   0.17508671
H    2.43270000   1.43695904   1.49731091
O   -1.26221416   2.49203902   3.35500028
H   -2.15649205   2.55577891   3.69031523
H   -0.76929399   3.13727893   3.86187996
O   -1.80888286  -0.62908547   0.16339169
H   -2.07578045  -1.54742526   0.12277694
H   -2.50090648  -0.15732364  -0.30004756
O   -2.83402737   1.61099202  -1.20352732
H   -3.70608891   1.99244236  -1.30470124
H   -2.45356875   1.64578582  -2.08117900
O    3.16519711  -0.05831487  -1.40571994
H    3.39864111  -0.96310339  -1.19813025
H    3.88342851   0.25471956  -1.95561534
O   -1.46195200  -3.42630574   0.26209532
H   -1.60082847  -3.97971291  -0.50646546
H   -1.80226464  -3.94155594   0.99348878
O   -0.22042672   0.03549383   2.60124906
H   -0.60206014   0.77925117   3.06752452
H   -0.04111691  -0.60998083   3.28494659
O    0.77885568  -1.78581177   0.50588373
H    0.17088347  -2.52255806   0.44418650
H    1.63084583  -2.15802745   0.27828733
O   -1.18970031   1.47524712  -3.44985301
H   -0.94273705   2.31752671  -3.83169866
H   -1.48820154   0.95261249  -4.19415262
O    0.40948365   0.35432938  -1.47845649
H   -0.08312078   0.71384445  -2.21623806
H    1.29706116   0.23676256  -1.81700642
O   -0.80795078   2.01814646   0.62985414
H   -1.53915521   2.20379683   0.04069722
H   -1.02203936   2.49058984   1.43433855
O    3.27460871  -2.64828527  -0.36031295
H    3.32820634  -3.36351207  -0.99419761
H    3.97204554  -2.83247908   0.26888206
Ca   0.05779416   0.15242952   0.54790753
