37
Energy:  -1648.17811813
O   -2.15400400   1.35126843   0.01635613
H   -3.10716098   1.42198498  -0.03582421
H   -1.83325520   2.19897763  -0.29144438
O   -2.05864060  -1.60724708  -0.05167196
H   -2.01175856  -2.04730444  -0.90042601
H   -2.64064851  -2.15771866   0.47223612
O   -1.16647005  -0.16982430   2.35309480
H   -0.43765587  -0.41901726   2.92139455
H   -1.87269717   0.06196027   2.95621255
O   -0.47675570   3.33611205  -0.92429979
H   -0.54248757   4.29040547  -0.88915373
H   -0.19464340   3.14779134  -1.81938627
O    1.32615452  -0.76924662   3.33096415
H    1.82438732   0.04772477   3.35449412
H    1.62801850  -1.25659687   4.09751469
O   -1.35830108  -2.45493996  -2.58266153
H   -0.76179840  -3.20050042  -2.65015959
H   -1.95346938  -2.55575272  -3.32552311
O    0.64858963   1.42771660   0.71959470
H    1.28299052   1.59360582   1.41690964
H    0.54959729   2.27190710   0.27939614
O    1.37351931  -3.55603035  -1.01224604
H    2.10405217  -3.54258993  -1.63060916
H    1.36720501  -4.44901886  -0.66762523
O    2.33799595   1.77081426   2.92702896
H    2.06633300   2.41284117   3.58295010
H    3.28712825   1.87812804   2.86487208
O    0.76821901  -1.49159497   0.66291463
H    1.26964684  -1.57266964   1.47422768
H    1.05548204  -2.23177269   0.12826638
O   -0.23897621  -0.05871616  -1.68287480
H    0.01588259   0.63339228  -2.29300983
H   -0.47546070  -0.79769754  -2.24342227
O    0.33523058   2.12039948  -3.33310565
H    1.23181825   2.25680997  -3.63929933
H   -0.20652382   2.24986416  -4.11154827
Ca  -0.69853878  -0.08816042   0.33257026
