37
Energy:  -1653.32403551
O   -3.22499211  -1.69722997   2.15803093
H   -3.34025813  -1.58437831   3.10154038
H   -3.90960443  -2.31651257   1.90499560
O    0.12669621   3.78989571   1.00241491
H   -0.52108391   4.37234116   1.39911386
H    0.92864048   4.31132026   0.96729118
O    1.40079862  -3.05282635   2.14150735
H    1.82518327  -3.78492229   1.69410926
H    1.29960294  -3.35026498   3.04567633
O    2.50010962  -0.51017056   1.80359467
H    3.35830296  -0.32928001   2.18701957
H    2.31021356  -1.41380348   2.05582251
O   -1.32006388  -0.73923659  -1.80715250
H   -1.83337399  -1.49373265  -2.09608204
H   -1.07169144  -0.29360112  -2.61706113
O   -2.55932542   0.46995956   0.56955847
H   -2.99725779  -0.13713500   1.16611801
H   -3.22999411   1.11681242   0.35043125
O    1.31307031  -0.28220490  -0.68103728
H    1.77742327  -0.25830907  -1.51771951
H    2.00314733  -0.39045537  -0.02658531
O    2.40517692  -0.05646796  -3.22963070
H    2.62012456  -0.84375843  -3.72983374
H    3.13636429   0.53911175  -3.39358708
O   -0.58873522   1.94708119  -1.00696638
H   -0.46428130   2.08031299  -1.94664311
H   -0.37544229   2.79354622  -0.61423882
O    0.17973575   1.05016102   1.59451315
H    0.23296606   2.00144799   1.68644511
H    0.98149221   0.72429908   2.00345375
O   -0.16991369   0.97309561  -3.61378195
H   -0.42282649   1.27575068  -4.48594413
H    0.73994151   0.69235516  -3.71166030
O   -0.70397261  -1.67008093   0.97315330
H   -1.49363624  -1.92573046   1.44992003
H   -0.01583196  -2.23167064   1.32996038
Ca  -0.61640515   0.11626239  -0.06140393
