37
Energy:  -1645.63509906
O   -1.56893160  -0.37338766   0.08672165
H   -1.58297684  -0.93996956   0.85809674
H   -2.43339560  -0.48504950  -0.30883551
O    0.37344269  -0.42800230  -2.08730783
H    0.51472406  -1.36501290  -1.95209488
H    0.94451718  -0.20271476  -2.82171324
O    1.28353502  -0.39645477   0.63886483
H    1.47481171  -1.30142121   0.39253003
H    1.26379218  -0.40726959   1.59580010
O    1.11685555  -2.80269256  -0.69656200
H    0.58880904  -3.38147574  -0.14664495
H    1.79487813  -3.37124030  -1.06162462
O   -1.43393252  -1.97830345   2.28898950
H   -1.08890073  -2.82042396   1.99231129
H   -2.16931955  -2.20707580   2.85740921
O    0.31237490   0.06856859   3.16867684
H    0.63951104   0.12968492   4.06616143
H   -0.30563724  -0.66213594   3.18774828
O    2.27152071   0.94691951  -3.62250602
H    3.14566654   0.58456247  -3.76672213
H    2.06155632   1.39947734  -4.43941374
O   -0.23298776   1.99456604   1.18350519
H   -0.75792057   2.79094773   1.26383953
H   -0.13657031   1.67903061   2.08204451
O   -0.37208898  -4.28373449   1.14201562
H    0.16589171  -4.82206362   1.72254157
H   -1.01247690  -4.89303951   0.77475202
O   -1.26126679   2.02607064  -1.51896025
H   -1.62123685   2.08038777  -2.40423030
H   -1.60678118   2.79853819  -1.07158398
O    1.64041990   1.96004330  -1.11343458
H    2.23083430   2.58830850  -0.69759144
H    2.02277991   1.80700210  -1.97750116
O   -1.94361830   4.04244067   0.25022851
H   -1.62025664   4.93640618   0.13844860
H   -2.84101422   4.14951182   0.56558257
Ca   0.04759539   0.80679856  -0.47012221
