37
Energy:  -1651.25124241
O   -0.06225743  -0.61295855   1.90187565
H    0.18789815  -0.12144656   2.68422468
H   -0.55411701  -1.36279712   2.23661157
O   -3.10143941  -1.68367430   0.46143770
H   -2.84633082  -2.14482217   1.26049596
H   -3.97761007  -2.01409295   0.26299291
O    1.92853390  -0.38904173  -0.24920819
H    2.25551646  -0.77597575  -1.06136355
H    2.65282795  -0.48218692   0.36962454
O    2.77321851  -1.51200484  -2.63998804
H    3.49292898  -1.10329917  -3.12082934
H    2.98215501  -2.44611676  -2.64349709
O    0.17505841  -0.89550089  -3.49885462
H    1.08552827  -1.18987241  -3.47391707
H   -0.11761360  -1.09567432  -4.38795840
O   -1.99692845   0.84243835   0.31451593
H   -2.62223021   0.12484626   0.41596128
H   -2.53992932   1.62947665   0.27032757
O    0.07008252   1.28573966  -1.75308667
H    0.35883608   2.18384120  -1.91515720
H    0.07131493   0.87365578  -2.61704107
O    0.65941219   2.00027840   0.94927873
H    0.88457756   2.82141581   0.51193932
H    0.80250361   2.17654658   1.87916379
O    1.02435723   3.87806387  -1.10924344
H    1.89624560   4.18691241  -1.35552599
H    0.45993225   4.64399099  -1.21418125
O   -0.70986309  -1.39441351  -0.92483483
H   -0.59704207  -1.51646465  -1.86749425
H   -1.55571629  -1.79796584  -0.73013062
O   -1.74264341  -2.67786589   2.69647960
H   -2.20141498  -2.61180295   3.53397359
H   -1.45370255  -3.58934778   2.65236856
O    0.75261951   1.35910257   3.70117133
H    0.13635766   1.76213884   4.31273894
H    1.57025821   1.29120807   4.19421204
Ca  -0.01783645   0.28016237   0.03956682
