37
Energy:  -1645.30337517
O    0.12955516   3.82842749  -3.02244464
H    0.20683026   4.70791728  -2.65263642
H    0.08440403   3.96887724  -3.96820734
O    0.40085263  -0.59698560  -1.89373202
H    0.85555760   0.18995379  -2.19406789
H    0.14414388  -1.04761464  -2.69826042
O   -2.73469839   0.30569604   2.56683887
H   -2.84682162   1.09119971   3.10223051
H   -3.51786903  -0.21665078   2.74012877
O   -1.89020645   2.21096953  -1.99715625
H   -2.72846053   2.46262199  -2.38475524
H   -1.26033677   2.83149792  -2.36381761
O   -0.20948505  -0.82559408   2.18271029
H   -1.04810958  -0.57133030   2.56779556
H    0.44741551  -0.45615329   2.77281792
O   -1.20308995  -2.40574958  -0.15088853
H   -0.90931592  -3.29517320   0.04622638
H   -2.10771484  -2.51152465  -0.44533255
O    1.43142732   0.72549089   0.42688805
H    1.75455094   1.34349126  -0.22877841
H    1.82467612   1.01980688   1.24845079
O    0.30619596  -4.63254445   0.51586723
H    0.46696385  -5.33375810  -0.11554781
H    0.20475917  -5.08314330   1.35426039
O    1.91101968   0.67458690   3.22187783
H    1.73992928   1.43650829   3.77544420
H    2.68542601   0.26599363   3.60863125
O    1.60548455  -2.19223613   0.29843861
H    2.55625701  -2.17526715   0.18900540
H    1.39565710  -3.11666719   0.43122230
O   -1.52384373   0.47893573   0.02223577
H   -2.15050162   0.66375363   0.72178854
H   -1.72834658   1.11986355  -0.65866214
O    1.77518265   1.78108896  -2.13998009
H    1.24658619   2.51898779  -2.44382702
H    2.62029845   1.89628832  -2.57442253
Ca   0.07501675  -0.79836565   0.13865374
