37
Energy:  -1651.34782896
O   -2.86927794   2.01277356   1.46479771
H   -3.76074585   1.73576151   1.67641329
H   -2.83519839   2.93271256   1.72706220
O   -1.24716919  -1.85881531  -0.02547713
H   -1.95249940  -2.26118152  -0.53227351
H   -1.05276103  -2.49527132   0.66253528
O   -0.68763863   0.31422540   1.81291889
H   -0.59370273  -0.11704888   2.66227769
H   -1.41961488   0.91965083   1.93082843
O    1.26881167   3.31839178  -2.24222428
H    0.97911015   4.22000563  -2.10294996
H    2.08905087   3.40227014  -2.72843814
O   -0.43844778  -1.18801460   4.13509928
H    0.27208785  -1.02770003   4.75612279
H   -1.20864090  -1.33457201   4.68423982
O    0.52111928  -0.57304545  -2.02776128
H    0.26847000  -0.06331014  -2.79754703
H    1.28633777  -1.07313002  -2.31164144
O    1.14801442   1.53027082  -0.12088261
H    1.76161828   1.83962661   0.54546650
H    1.21982689   2.17038763  -0.82892588
O    0.03577589  -3.06321000   2.12709597
H    0.13922514  -3.98283760   2.37166737
H   -0.13658837  -2.61289963   2.95398350
O    1.50001395  -1.30099652   0.58024115
H    2.16180041  -1.64789798  -0.01803128
H    1.33240794  -2.01644561   1.19365184
O    2.89327053  -2.08276068  -1.70760672
H    3.77650510  -1.76228981  -1.89043717
H    2.90658145  -2.99729508  -1.98988583
O   -1.62405486   0.96192476  -0.84068408
H   -2.27206614   1.47152206  -0.35424414
H   -1.65297158   1.32092892  -1.72753902
O   -0.63742379   1.58407155  -3.36688818
H   -0.02880724   2.31003373  -3.22978729
H   -1.00744225   1.74188323  -4.23545807
Ca  -0.06786427  -0.15704920  -0.10185610
