37
Energy:  -1649.90584030
O    0.02047823  -1.32311040   0.25201218
H    0.41096351  -1.93054027   0.88032901
H   -0.54367892  -1.87151647  -0.29315692
O    0.50717970   0.55454795  -1.93167880
H    1.41772156   0.70365193  -2.18645982
H    0.11104822   0.13137615  -2.69341191
O   -0.53174216   0.93419469   2.03831704
H   -1.39950531   1.03238363   2.43020722
H    0.02785519   0.65223506   2.76190630
O    1.23663482  -2.83288472   2.24716555
H    0.70783629  -3.36795659   2.83902876
H    1.99166743  -3.38236784   2.03686597
O   -3.36372627   1.15698297   2.00249334
H   -3.78780111   2.00344220   2.14355769
H   -3.94547967   0.52400235   2.42336194
O   -1.96795683  -1.88537732  -1.64323661
H   -1.66593985  -1.70534958  -2.53352173
H   -2.59649909  -2.60036712  -1.74301665
O    3.25571603   1.01718210  -1.96082558
H    3.62146860   1.84516034  -2.27212759
H    3.87849263   0.35331515  -2.25690299
O    1.78882070  -0.22437905   3.11381907
H    1.71579528  -1.17349347   3.01341510
H    2.27984853  -0.10614355   3.92692662
O   -0.14683866   2.79958549  -0.17874752
H   -0.58103819   3.29312477  -0.87453599
H    0.21749230   3.46979963   0.39944605
O    1.94646974   0.87702167   0.54991283
H    2.71044659   0.94046340  -0.02327681
H    2.30215315   0.59907308   1.39398968
O   -2.04228236   0.57963033  -0.39002528
H   -2.72080943   0.77346104   0.25670691
H   -2.36911506  -0.18887885  -0.85779218
O   -0.77655689  -0.85724716  -3.94696179
H   -0.28127192  -1.47168377  -4.48861879
H   -1.35152995  -0.40356720  -4.56325094
Ca  -0.04062573   0.73262643   0.05070618
