37
Energy:  -1648.44576949
O   -1.67652964   2.79596065  -0.93800575
H   -2.33145685   3.49320167  -0.90398875
H   -1.19940829   2.95440279  -1.75255050
O   -2.98541981  -1.37503038   1.80976579
H   -3.24285109  -2.28810617   1.68227623
H   -3.67683378  -1.00516126   2.35874248
O   -1.75284224   0.04751647  -0.28335924
H   -2.13478273   0.86656672  -0.59881128
H   -2.45484865  -0.36718316   0.21808176
O    0.29434268   1.83454363   0.73409781
H   -0.30510571   2.46122670   0.32892895
H    0.35196804   2.11385705   1.64782380
O   -0.29901362  -0.63553237   2.07670100
H   -0.12567127  -0.05147812   2.81498611
H   -1.16311234  -1.00421855   2.26010152
O    0.43902254  -2.03764856  -3.19117264
H    1.17523136  -2.41254842  -3.67457570
H   -0.32744525  -2.23673638  -3.72887424
O    2.25195120  -0.34419449   0.65205023
H    2.57188179  -1.21735224   0.87892422
H    3.03849690   0.20077036   0.62773935
O    2.49114786  -3.08706319   1.03167175
H    3.18825768  -3.58612307   0.60598528
H    2.39977025  -3.49064255   1.89480887
O    0.32379619   1.67804641   3.53863568
H   -0.33590222   2.12293626   4.07070981
H    1.13439553   1.76348288   4.04049340
O    0.28283222  -2.12018439  -0.40548988
H    0.24536079  -2.39552870  -1.32146654
H    0.87434601  -2.74780504   0.00976378
O    0.68924802   0.36855556  -1.80256225
H    0.59724122   1.18877684  -2.28733400
H    0.69885598  -0.30962868  -2.47799225
O    0.12363921   2.77087387  -3.07339150
H    0.76643207   3.47950054  -3.10334864
H   -0.25108167   2.74938670  -3.95393361
Ca   0.25336179  -0.13599690   0.15029405
