37
Energy:  -1649.07940305
O   -0.07958557   1.84679523   1.88234877
H   -0.21873341   1.99248434   2.81810751
H   -0.07262931   2.72480880   1.50119836
O    0.11691552   0.13985706  -3.31861113
H    0.59325995   0.41755629  -4.10105024
H   -0.61972556  -0.37068012  -3.65468188
O   -1.84389853  -0.12644098   0.49068173
H   -2.66385271   0.26487781   0.79197328
H   -2.11254800  -0.77663556  -0.15839940
O    0.10682168   3.88508715  -0.02426346
H   -0.64773900   4.41376605  -0.28381816
H    0.84872704   4.48838102  -0.06721442
O   -0.03344923  -0.89907609   2.66530250
H   -0.05521865  -1.81157991   2.95356403
H   -0.16602200  -0.39128993   3.46580829
O   -2.04329743  -1.45286942  -4.05773975
H   -2.80705633  -1.00610454  -4.42284976
H   -1.84361873  -2.14278960  -4.69048805
O    2.24460121   0.14814143   1.13507654
H    2.78340946  -0.50812719   0.69322926
H    2.87344049   0.70732370   1.59126531
O    3.26116621  -1.97262647  -0.32727508
H    3.75188013  -1.82342265  -1.13546436
H    3.71466337  -2.70047479   0.09794135
O   -0.39931097   1.07478845   4.58308718
H    0.26544769   1.24579572   5.25023355
H   -1.23236561   1.16340788   5.04611894
O    0.47223648  -1.68306805  -0.16548807
H   -0.17810679  -2.10621629  -0.72605122
H    1.30676034  -2.06773599  -0.43350365
O   -1.99127970  -2.14727207  -1.37689099
H   -2.05627385  -1.93042546  -2.30693677
H   -2.53483604  -2.92842549  -1.27404308
O    0.36757253   1.19724117  -0.85925799
H    0.32748891   2.15220847  -0.91085846
H    0.29982756   0.90473851  -1.76814999
Ca   0.18934937   0.08148372   0.85135028
