37
Energy:  -1646.72065339
O    0.05041773   4.15273765  -1.86989960
H    0.79731186   4.74958308  -1.82346098
H   -0.71482322   4.72728207  -1.89306969
O   -0.89989423   1.44628930   2.31108554
H   -0.32907325   0.93418267   2.88392238
H   -1.39636248   2.00762290   2.90661531
O   -1.34298176  -0.56215955   0.48850952
H   -1.52271671  -1.44325885   0.81652051
H   -1.53246422   0.01313466   1.22970100
O   -1.00164328  -3.25626880   0.94772874
H   -0.62753956  -3.34657491   1.82415505
H   -1.60513622  -3.99486916   0.86712079
O    1.58151342  -0.42467159   0.56325685
H    2.53710677  -0.44925116   0.51356748
H    1.38822458  -0.48475667   1.49881073
O    0.19012346  -2.14674155  -1.32674806
H   -0.10256936  -2.75607125  -0.64904601
H    0.35098599  -2.69842125  -2.09225744
O    0.00928542   1.85712856  -0.31089669
H    0.02872014   2.70300954  -0.75848971
H   -0.24226386   2.06721997   0.58844552
O    0.03283816  -3.18344943   3.53418049
H   -0.62206369  -3.32119993   4.21854897
H    0.72267324  -3.81715459   3.73109972
O    0.89377651  -0.55389057   3.20073764
H    1.48471837  -0.32127829   3.91691576
H    0.59565908  -1.43831412   3.41322960
O   -1.29332983   0.21248257  -2.35227896
H   -1.09311621   0.85192429  -3.03584362
H   -2.20305160  -0.03646983  -2.51556049
O    0.14797261   2.10948676  -3.76371204
H    0.16903522   2.34106610  -4.69223733
H    0.11228032   2.95018913  -3.30744738
O    1.58191891   0.29803846  -2.29038223
H    1.32797620   0.95021495  -2.94338359
H    2.44636516  -0.00050542  -2.57293503
Ca   0.12118342  -0.12230662  -0.88243571
