37
Energy:  -1646.87240769
O   -0.41713384   3.51741556  -0.37778183
H   -0.30114736   3.87188557   0.50376793
H   -0.67921752   4.27084084  -0.90683224
O    0.80193360  -3.06107356   2.38091348
H    1.55991443  -3.64549361   2.39316553
H    0.36665347  -3.21497815   3.21941001
O    3.13063121   0.63463376  -2.31668997
H    3.30308639   0.78779340  -3.24568576
H    3.94893434   0.86899840  -1.87887145
O   -2.50016006  -3.33600331  -1.94450609
H   -3.44210542  -3.39973134  -1.78667854
H   -2.30626377  -4.06292570  -2.53629989
O   -0.10920439   4.23147142   2.28900935
H   -0.78766245   4.80914715   2.63860520
H    0.71452993   4.64440312   2.54820238
O    1.57739085  -1.48035604  -1.44752644
H    2.25302306  -0.90012379  -1.79835903
H    1.87938827  -2.36141974  -1.66833442
O    0.62869818   1.18120233  -1.17496172
H    0.30159280   2.05289537  -0.95273396
H    1.47374743   1.34183156  -1.59486868
O   -0.69807771  -2.50535769   0.06721521
H   -0.39359437  -2.99049758   0.83413179
H   -1.33070796  -3.08959585  -0.35072806
O   -1.23053550  -0.88479497  -2.22389780
H   -1.37081400  -0.39669668  -3.03526322
H   -1.75435013  -1.67914813  -2.32807618
O   -0.49514690   1.50236560   2.60999660
H   -0.78095780   1.38546810   3.51602030
H   -0.32929855   2.44168511   2.52996516
O    0.92859459  -0.48649179   1.27334062
H    1.10583293  -1.25275124   1.81892734
H    0.73764539   0.21358734   1.89756771
O   -1.66307525   0.33103062   0.40063903
H   -2.55362263   0.58913612   0.16286023
H   -1.47624960   0.82250395   1.20050276
Ca  -0.07569671  -0.62771751  -0.52185964
