49
Energy:  -1225.02837851
O   -0.01197374   0.06538058   0.16007231
H    0.15044133   0.45226597   1.02040532
H   -0.93839181  -0.17488528   0.17600086
O   -2.87583214   1.89160775  -1.21835531
H   -3.61132839   2.49668207  -1.31407459
H   -2.78658114   1.48415712  -2.07989469
O   -2.37516826  -1.94105211  -2.09984284
H   -1.44335324  -2.15997391  -2.10492941
H   -2.81810160  -2.77318064  -2.26598738
O    2.14958846   1.58679857  -0.90472773
H    2.13016796   2.28148899  -0.24650291
H    2.53263626   0.83638434  -0.45043188
O    0.34656770   1.27246749   2.57795274
H    1.10319425   0.80332583   2.92959776
H   -0.41019353   0.78090848   2.89719251
O   -0.23008436   2.61645877  -1.26368908
H    0.02035185   3.11136830  -0.48357492
H   -1.17037273   2.46863041  -1.16251393
O   -2.17804423   0.45164455  -3.44806096
H   -2.34941365  -0.42478818  -3.10348870
H   -2.51120441   0.42623639  -4.34505068
O    1.66085077  -2.71762704   0.15109604
H    2.23614581  -1.95861329   0.24683313
H    2.20731111  -3.46508444   0.39383126
O    0.47556578   0.48861460  -2.63777820
H   -0.37150207   0.58764977  -3.07240441
H    0.53967769  -0.44727863  -2.44744851
O    3.26536976  -0.49461446   0.53371654
H    4.22019936  -0.50886126   0.46791896
H    3.09085631  -0.38203244   1.46811592
O   -2.66838221  -0.45842288   0.23619903
H   -2.90985969   0.38333575  -0.15027592
H   -2.71581197  -1.07887175  -0.49114233
O    2.50031896  -0.33144094   3.16714886
H    2.92488169  -0.44341556   4.01770163
H    1.87951349  -1.05788106   3.11131723
O    0.35656996  -2.23019184  -2.19270293
H    0.75886775  -2.41275183  -1.34355030
H    0.82330052  -2.79752799  -2.80631855
O    1.14643133   3.37924652   1.00271681
H    1.35804920   4.18499995   1.47410957
H    0.84432040   2.77616653   1.68187465
O    0.59955996  -2.14495482   2.67457730
H    0.72701949  -2.37736656   1.75481064
H   -0.27294075  -1.75240541   2.70423062
O   -1.72945257  -0.60922148   2.84605655
H   -2.38937037  -0.81107633   3.50937771
H   -2.21325131  -0.60359918   2.02013947
H    0.78624838   1.44494673  -1.53781066
