49
Energy:  -1227.30497618
O   -0.30062449   0.21396534   0.29360955
H   -0.02794941   0.74303913   1.04325018
H   -1.25721874   0.23111997   0.32302044
O   -2.71583927   1.53125913  -2.04675248
H   -3.38003473   2.01145532  -2.54120962
H   -2.57056075   0.73219770  -2.55333598
O   -2.50611052  -2.35803056  -0.78368624
H   -1.65411836  -2.54513776  -0.38956430
H   -3.03182010  -3.13648713  -0.59965727
O    2.17319440   1.32219593  -0.98916740
H    2.13701649   2.08770603  -0.41565428
H    2.61567831   0.65241517  -0.46779080
O    0.28005490   1.86296169   2.35081990
H    0.74983448   1.27007992   2.93736078
H   -0.63119328   1.81421923   2.63975376
O   -0.08281346   2.32704292  -1.83334284
H    0.06573650   2.96127474  -1.13197650
H   -1.03231786   2.20727167  -1.85145631
O   -1.95077595  -0.91593309  -3.06119708
H   -2.23010300  -1.37789924  -3.85163716
H   -2.18946821  -1.50249368  -2.34341958
O    0.04858053  -2.44823092   0.23039000
H   -0.04825948  -1.49941830   0.31168247
H    0.67480953  -2.56521445  -0.48402160
O    0.62793650  -0.08607297  -2.58085644
H   -0.23873078  -0.40477209  -2.83294879
H    1.13296023  -0.87947241  -2.40281093
O    3.36521362  -0.85054264   0.26199430
H    4.28646190  -0.74895027   0.50118550
H    2.97150760  -1.30090498   1.00925676
O   -3.00196856   0.16787085   0.33736383
H   -3.10289645   0.70581976  -0.44791089
H   -3.06427716  -0.73324401   0.02059657
O    1.61832258  -0.06717112   3.71661352
H    1.80963967  -0.24915295   4.63667451
H    1.74112438  -0.90757884   3.27517673
O    2.03354193  -2.25751426  -1.69269888
H    2.65305844  -1.85028145  -1.08722999
H    2.56205505  -2.87631241  -2.19667762
O    1.15740836   3.50818203   0.37763048
H    1.41174780   4.38376408   0.66900543
H    0.85074454   3.07061711   1.17181313
O    1.99270938  -2.32975736   2.15753579
H    1.23108482  -2.48922251   1.60010352
H    2.18783109  -3.18214846   2.54687984
O   -2.39711484   1.47414230   2.72876282
H   -3.13306483   1.64477312   3.31655069
H   -2.78564354   1.01307304   1.98532995
H    0.86637342   1.15949039  -1.76682456
