49
Energy:  -1226.04307617
O    0.18054970   0.27718670   0.17254245
H    1.01420999   0.20600893   0.63748986
H   -0.48228841   0.24800070   0.86248858
O   -3.09390031   0.85814377  -1.24539526
H   -3.82433025   1.30426711  -1.67397188
H   -2.84503585   0.16418951  -1.85590800
O   -2.03992123  -2.76917801  -0.52644569
H   -2.49288905  -2.17864732   0.07548911
H   -2.43186922  -3.62676830  -0.36168066
O    1.84324967   1.93686533  -1.54626765
H    1.71246494   2.60122189  -0.86968982
H    2.58850001   1.42225247  -1.23641706
O    0.57407024   2.25567760   2.75833202
H    0.56489232   2.64503195   3.63271797
H   -0.14804680   1.62743445   2.76778542
O   -0.75057195   2.22268679  -1.72813086
H   -0.55436064   2.82053031  -1.00680146
H   -1.58184294   1.81605075  -1.48345244
O   -2.04268790  -1.16898730  -2.74693179
H   -2.01233558  -1.82455304  -2.05012181
H   -2.33184871  -1.65369838  -3.52002495
O    0.59174427  -2.91110600   0.34754055
H   -0.29976509  -2.87514958   0.00091390
H    1.13378833  -2.53242944  -0.34457515
O    0.40339103   0.07140823  -2.72068045
H   -0.43678593  -0.37740574  -2.81502313
H    1.00594864  -0.60823985  -2.41862968
O    3.70604090   0.21040857  -0.47561725
H    4.65449588   0.32383550  -0.41397856
H    3.40505599   0.20817997   0.43302733
O   -3.29555898  -0.80290451   0.95504703
H   -3.30515776  -0.14458393   0.26024222
H   -4.18794165  -0.79944337   1.30127389
O    2.31942434   0.25457628   1.87478933
H    1.94148731  -0.50463450   2.31862988
H    1.90953598   1.00879272   2.29832321
O    2.15853724  -1.74169162  -1.65673486
H    2.80776213  -1.16649453  -1.25190503
H    2.67622280  -2.38006379  -2.14736148
O    0.59390773   3.57582898   0.31911912
H    0.67450162   4.51137560   0.50483129
H    0.56358047   3.16169912   1.18156249
O    0.71646061  -1.80248429   2.79978854
H    0.90608004  -2.48612522   3.44237037
H    0.68501723  -2.26324793   1.96137335
O   -1.22304131   0.16418304   2.50794608
H   -2.02909874  -0.20931799   2.15157515
H   -0.69162839  -0.59534077   2.74660008
H    0.47329459   1.33365481  -1.93853219
