49
Energy:  -1224.53348603
O   -0.29310082   0.05978078   0.11363278
H   -0.03350209   0.50034619   0.92279436
H   -1.24596639  -0.00918165   0.17298977
O   -2.49950592   2.40492686  -0.81355283
H   -1.83642790   2.81633481  -0.25920375
H   -3.13528602   3.10004425  -0.98333892
O   -2.25538212  -2.31208002  -1.40652378
H   -1.45888007  -2.57131847  -0.94326168
H   -2.79912271  -3.09984565  -1.40834651
O    1.53766856   1.98523701  -1.11981997
H    1.02140024   2.56062767  -0.55535167
H    2.13370818   1.53420399  -0.52187529
O    0.18061052   1.45970675   2.38368258
H    0.87894039   0.94078105   2.78278576
H   -0.62556955   1.10773448   2.76106973
O   -0.61324445   1.53397961  -2.56443045
H   -1.31721820   1.88278085  -2.01763021
H   -1.01960934   0.81587338  -3.04963439
O   -1.15481216  -0.99859009  -3.55025950
H   -1.60316340  -1.51225948  -2.87842860
H   -1.47814402  -1.35268347  -4.37869552
O    0.15694949  -2.56957985  -0.06109947
H    0.01608940  -1.63151584   0.06706522
H    1.03840521  -2.63183008  -0.42905678
O    1.31804977  -0.20376651  -2.56002876
H    0.65851974  -0.72114471  -3.02216703
H    1.84734308  -0.85088575  -2.09385592
O    3.20194053   0.41554646   0.46214549
H    4.08583992   0.77000700   0.55864125
H    2.92121523   0.22390601   1.35696340
O   -2.96276565  -0.14521876   0.29915330
H   -3.08524340   0.66809302  -0.19049454
H   -3.01050499  -0.83399407  -0.36382586
O    2.28872286  -0.21033029   2.97409147
H    2.73887996  -0.24817382   3.81798619
H    1.89537486  -1.07708094   2.87283682
O    2.71859143  -1.91327170  -0.97171316
H    3.00243473  -1.20418276  -0.39477494
H    3.51301471  -2.42119207  -1.13645656
O   -0.23101486   3.37214593   0.48941964
H   -0.08384685   4.26616302   0.79813777
H   -0.10795335   2.82667104   1.26630114
O    1.11875618  -2.60782505   2.50934603
H    0.85778648  -3.38567002   3.00238139
H    0.72025424  -2.72538685   1.64701937
O   -2.23951231   0.34962569   2.94687518
H   -2.91477813   0.20502286   3.60970090
H   -2.65774513   0.10598808   2.12107020
H    0.74821285   1.11985249  -2.01653797
