49
Energy:  -1235.80223071
O   -0.23134159   0.21613777   0.19397742
H    0.07578844   0.55530290   1.03473304
H   -1.17211256   0.08843373   0.31593440
O   -2.99396169   1.47369327  -1.52916063
H   -3.74849900   1.93803249  -1.89150629
H   -2.77911343   0.81371846  -2.18833081
O   -2.38495523  -2.46585859  -1.19532922
H   -1.49159899  -2.62045437  -0.88833310
H   -2.79202416  -3.33218805  -1.19529361
O    1.95879210   1.91721646  -0.93056019
H    1.81172560   2.53878325  -0.21763802
H    2.55569730   1.26603871  -0.56190919
O    0.48563506   1.24710439   2.58617574
H    1.27665789   0.74095936   2.77146451
H   -0.22076927   0.74630440   2.99412688
O   -0.49372748   2.60883186  -1.48611327
H   -0.38292067   3.10438241  -0.67470501
H   -1.40513564   2.31697106  -1.46651000
O   -1.96278553  -0.53507191  -3.10345803
H   -2.13949893  -1.28393098  -2.53405983
H   -2.22472254  -0.82971863  -3.97569892
O    0.16745855  -2.39953716  -0.26171701
H    0.07439015  -1.46619229  -0.07083097
H    0.91685072  -2.44956860  -0.85513094
O    0.56182483   0.48700692  -2.63823340
H   -0.27595780   0.09465930  -2.88402894
H    1.14788400  -0.25894743  -2.51048910
O    3.52148020  -0.10270617   0.07229409
H    4.46956422   0.02075653   0.11839715
H    3.25778353  -0.27582580   0.97602276
O   -2.83902260  -0.35987508   0.57370389
H   -3.14881821   0.33232565  -0.01034805
H   -2.88460922  -1.15727057   0.04614901
O    2.64473645  -0.47818751   2.64896671
H    3.17665562  -0.66268488   3.42308205
H    1.99766040  -1.18325346   2.62880639
O    2.26659292  -1.56110444  -1.91832767
H    2.79872494  -1.16139820  -1.23035799
H    2.89661669  -2.02407213  -2.47056205
O    0.63838630   3.46565611   0.94595735
H    0.73786170   4.30827107   1.38905613
H    0.53969876   2.83131917   1.65596388
O    0.60179055  -2.20440708   2.47990705
H    0.44139723  -2.53169950   1.59481638
H   -0.22741413  -1.80430101   2.74175928
O   -1.60240703  -0.57318588   3.07755685
H   -2.17734941  -0.71646979   3.82931668
H   -2.19662266  -0.50790381   2.32997549
H    0.64169693   1.61549789  -1.66384089
