49
Energy:  -1223.67661472
O    0.76346600  -0.18665900   0.38328614
H    1.61745031  -0.35402959   0.78194607
H    0.13318834  -0.55406960   1.00295651
O   -3.49495212   1.32944359  -0.42146313
H   -4.23569240   1.93110919  -0.49585529
H   -3.30633102   1.06841256  -1.32286023
O   -2.06679932  -1.89157298  -1.57752077
H   -1.23235893  -2.33176852  -1.41575253
H   -2.47455673  -1.82535563  -0.71405044
O    1.58557903   2.44514933  -0.40435693
H    1.80396595   2.52478595   0.52418872
H    2.32025896   1.96244990  -0.78314250
O   -0.50885898   1.63311106   2.88690126
H   -1.02336488   1.91942784   3.64157883
H   -0.67069805   0.69144354   2.82943606
O   -0.95856487   2.16616128   0.21358160
H   -0.87129494   2.04599506   1.15919033
H   -1.87100388   1.94526351   0.02679005
O   -2.53916562   0.43490273  -2.81722962
H   -2.40552334  -0.45530697  -2.49180948
H   -2.90342339   0.31753982  -3.69459732
O    0.43267209  -3.00790529  -1.21140049
H    0.91552390  -2.26597863  -1.57558564
H    0.60646900  -3.72812684  -1.81745940
O   -0.02374742   1.18245319  -2.04768488
H   -0.88571085   0.98193595  -2.41243647
H    0.50224358   0.40455264  -2.23325442
O    3.54836716   0.66737110  -1.20716842
H    4.44104697   0.89888903  -1.46359396
H    3.63338187   0.33856126  -0.31224472
O   -3.29394150  -1.14867044   0.80096155
H   -3.48644578  -0.27834248   0.45210170
H   -4.14703708  -1.49798676   1.05871705
O    3.32535314  -0.05532363   1.43600675
H    3.72383826  -0.59627454   2.11777912
H    3.03852260   0.73490352   1.89371971
O    1.70782575  -0.89977082  -2.55346446
H    2.42274395  -0.45403534  -2.09910370
H    2.01554773  -0.98928084  -3.45542177
O    2.10580872   2.27573506   2.30413945
H    2.40271914   2.99197705   2.86545349
H    1.23324200   2.05920684   2.63273446
O    0.39018705  -3.20626058   1.55770102
H    0.51041899  -4.13109416   1.77324448
H    0.45773900  -3.17147540   0.60352149
O   -1.00365177  -0.99135607   2.29939973
H   -1.84654896  -1.11381995   1.86264033
H   -0.57552680  -1.84531145   2.23856329
H    0.23039845   1.82872325  -0.70322831
