49
Energy:  -1226.13987489
O    0.33487136   2.10672462  -1.05915687
H   -0.47829941   2.51000699  -0.75526794
H    1.02171052   2.71291194  -0.78163076
O   -3.07771944   0.89399266   0.97065100
H   -3.56108129   0.86715729   1.79640703
H   -2.18023707   0.66307509   1.21030559
O   -0.50844351  -0.27920075  -1.74041786
H   -1.39117452  -0.53555961  -1.47340108
H   -0.29364294  -0.87248357  -2.46021509
O    2.25796133   3.66913265   0.08794084
H    2.92205734   4.29930516  -0.19150674
H    2.75207593   2.98253713   0.53590201
O    0.12141690   3.82235684   1.89292022
H    0.83574865   4.02724229   1.28960940
H   -0.64985431   3.73902925   1.33218045
O    0.27607980  -4.22301306  -1.84939882
H   -0.53193591  -4.07345476  -1.35850701
H    0.27450704  -5.16228590  -2.03377859
O   -3.00805003  -1.08092744  -0.93400720
H   -3.72599580  -0.96600929  -1.55656606
H   -3.17075538  -0.42484480  -0.25627983
O    2.06297569  -2.71986835  -0.36930468
H    2.86070799  -3.22382491  -0.20842327
H    1.54147457  -3.27471050  -0.94932074
O    0.16343421  -2.09566348  -3.59848264
H    0.22916179  -2.92986570  -3.13370486
H    0.35631542  -2.31320526  -4.51046085
O    3.13607479   1.37749052   1.37052297
H    2.49400368   1.41916877   2.07921152
H    3.96578789   1.18933943   1.80916541
O   -1.92353839  -3.55635469  -0.31480813
H   -2.37383662  -2.74418865  -0.54686343
H   -2.61030561  -4.11672689   0.04653055
O    1.05689960   1.63482113   3.13137051
H    0.97599395   1.68488146   4.08383053
H    0.70479511   2.46736237   2.81652235
O    1.86103303   0.01617195  -0.66108595
H    2.00704046  -0.92731642  -0.59221374
H    2.38483663   0.39234234   0.04627357
O   -1.90844752   3.21992364   0.05910735
H   -2.53223534   3.87112295  -0.26192234
H   -2.45416865   2.49697921   0.36857730
O   -0.06704229  -2.36473536   1.35629786
H    0.74679419  -2.56147361   0.89240553
H   -0.73667474  -2.86346311   0.88822215
O   -0.48085980   0.28554130   1.29527800
H   -0.33164773  -0.65448303   1.39687455
H    0.02434016   0.68654349   2.00252767
H    0.52549737   0.61224569  -1.08731629
