49
Energy:  -1230.06014934
O   -0.01567227   0.08530038   0.08162318
H    0.78888361  -0.00586493   0.59212350
H   -0.50098454  -0.72188940   0.25235252
O   -3.15017835   0.92899553   0.05577901
H   -4.03275901   1.27795375  -0.06876576
H   -2.97996784   0.41863705  -0.73592450
O   -1.61977488  -2.80863334  -1.69827840
H   -2.00440987  -3.66736905  -1.87395068
H   -1.64579233  -2.72445928  -0.74514165
O    1.45388384   2.49251094  -0.80359345
H    1.38777595   2.87564563   0.07108901
H    2.24419597   1.95349709  -0.77038711
O    0.24336287   1.03381060   3.23045971
H    0.24521222   1.01430960   4.18745926
H   -0.59854082   0.65065703   2.98424156
O   -1.14171206   2.67715537  -0.58509648
H   -0.83306160   3.05073093   0.24037796
H   -1.85899529   2.09598115  -0.33216735
O   -2.39295203  -0.26370478  -2.32716625
H   -2.13710064  -1.17391112  -2.17784667
H   -2.92313453  -0.29102094  -3.12365366
O    1.13636323  -2.70733186  -1.28952648
H    0.23559687  -2.82038561  -1.59295796
H    1.46692510  -1.96227213  -1.79136978
O   -0.09933179   1.25166991  -2.53795450
H   -0.88161874   0.70012086  -2.54520868
H    0.62604908   0.64104598  -2.66907601
O    3.50010933   0.68179798  -0.57383876
H    4.43778498   0.82869084  -0.44966671
H    3.20165279   0.31837458   0.25987520
O   -2.20374644  -0.06502060   2.48523449
H   -2.54328819   0.31657357   1.67571047
H   -2.97070666  -0.14698000   3.05205590
O    2.17055351  -0.23043353   1.64740362
H    2.00130087  -1.17002153   1.71639485
H    1.65273013   0.15906287   2.35194840
O    2.05212705  -0.45611697  -2.62558937
H    2.66963198  -0.12794317  -1.97196757
H    2.59025385  -0.63093555  -3.39765792
O    0.40306102   3.28949842   1.63697118
H    0.36449146   2.55385399   2.24817616
H    0.52655512   4.05807934   2.19398502
O    1.32116397  -2.83493073   1.40603164
H    1.72760850  -3.65321318   1.69142352
H    1.35982361  -2.86836495   0.45019722
O   -1.32467589  -2.18206142   0.93691083
H   -1.66941157  -1.61660844   1.62803462
H   -0.50130892  -2.51857037   1.29054964
H    0.04559164   2.03800932  -1.30292141
