49
Energy:  -1226.32876185
O   -0.18934775  -0.28077170   0.38557931
H    0.24003892  -0.30912719   1.24059680
H   -1.12342016  -0.34751604   0.58378569
O   -3.11003745   1.50558754  -1.05116765
H   -3.91607450   1.98672350  -1.23836889
H   -2.94654665   0.99380500  -1.84336790
O   -2.28848493  -2.48960970  -1.42028848
H   -1.36874717  -2.69105617  -1.24785407
H   -2.71617977  -3.34450291  -1.46995305
O    1.86708549   1.65378881  -0.32743290
H    1.98225277   1.96094913   0.57180059
H    2.46943866   0.91418936  -0.40740271
O    2.02211596   2.34938797   2.30272689
H    2.50511501   3.09348565   2.66225770
H    1.10147821   2.56980429   2.44441191
O   -0.64502265   2.49801779  -0.36733209
H   -0.70770162   2.70946436   0.56411493
H   -1.54353813   2.29652031  -0.62867581
O   -2.19393324  -0.21546124  -2.97013262
H   -2.27211643  -1.05422288  -2.51560195
H   -2.49029902  -0.39724769  -3.86195820
O    0.40139162  -2.56649351  -0.83984759
H    0.17215114  -1.75174514  -0.39278412
H    0.87449595  -2.28554847  -1.62309342
O    0.23998009   0.89681169  -2.27156079
H   -0.60073036   0.56269971  -2.58430186
H    0.87665669   0.23499345  -2.54150779
O    3.49289905  -0.57300709  -0.52203794
H    4.42943892  -0.46719348  -0.35492004
H    3.21695558  -1.25995539   0.08474792
O   -2.84455406  -0.64878620   0.67359529
H   -2.85914114  -1.38289966   0.05951346
H   -3.10225488   0.10871713   0.14822795
O    2.41081079  -2.54736740   1.05609528
H    2.75021394  -3.40437678   1.31411134
H    1.69414330  -2.74470670   0.45303910
O    1.95090029  -1.20085677  -2.71294041
H    2.65051108  -1.03563918  -2.08089632
H    2.40715225  -1.45726058  -3.51439102
O   -0.71275346   2.82155016   2.35119829
H   -1.18330910   3.45761858   2.88992477
H   -1.06230953   1.97256065   2.62186269
O    1.10868620  -0.69620363   2.74223081
H    1.71041425  -1.37811952   2.44365767
H    1.67825565   0.01710117   3.03036054
O   -1.59937357   0.37893307   3.06962530
H   -2.24250595  -0.13845242   2.58493484
H   -0.89251828  -0.23686045   3.26297934
H    0.45940053   1.62290527  -0.91058152
