49
Energy:  -1224.65629380
O   -0.00093011   0.13638454   0.21635438
H    0.29368005   0.45677586   1.06887189
H   -0.91908315  -0.09767720   0.35215547
O   -2.70925891   1.47035052  -1.36465189
H   -3.51022931   1.92583382  -1.62390704
H   -2.49398969   0.91715897  -2.11556474
O   -2.66409110  -2.62730526  -0.81688842
H   -2.00627012  -2.71710761  -1.50640923
H   -3.20421131  -3.41352635  -0.89662808
O    2.16962489   2.04917463  -0.73421719
H    2.04776733   2.59553295   0.04223318
H    2.70869138   1.31849590  -0.43131827
O    0.67185811   1.12403084   2.65713283
H    1.42289323   0.55480468   2.82494125
H   -0.06951312   0.66624935   3.05341134
O   -0.28985749   2.78378570  -1.20115785
H   -0.17693076   3.20046318  -0.34683983
H   -1.17352016   2.41684002  -1.17426928
O   -1.66086557  -0.02214981  -3.45226153
H   -1.44366979  -0.93820128  -3.27932354
H   -1.96557022  -0.01492852  -4.35963950
O    1.42781733  -1.47625587  -1.40929972
H    0.89353585  -1.08118502  -0.72031918
H    2.32689873  -1.39823890  -1.09024201
O    0.79589099   0.87175034  -2.62731932
H    1.14842297   0.02227629  -2.36208946
H   -0.04091637   0.66494835  -3.04351426
O    3.51651829  -0.20868493   0.07560435
H    4.47034183  -0.28115949   0.04096425
H    3.29120966  -0.43554938   0.97782405
O   -2.60158394  -0.38316643   0.70815875
H   -2.84953731   0.29213738   0.07671934
H   -2.72166893  -1.20779294   0.23719957
O    2.70962563  -0.73520444   2.66062880
H    3.27819122  -0.90720867   3.41121495
H    2.02262694  -1.39882058   2.72290449
O   -0.71708364  -2.54575341  -2.78808270
H    0.09698819  -2.34157380  -2.32783321
H   -0.49110080  -3.27750765  -3.36227720
O    0.85569895   3.46899046   1.25525443
H    0.96435119   4.25908923   1.78456574
H    0.75224841   2.76416367   1.89458927
O    0.52960715  -2.32092479   2.91361493
H    0.25527470  -3.22114111   3.08849814
H   -0.25586258  -1.79627721   3.06857963
O   -1.52515764  -0.48676212   3.24643793
H   -2.18589422  -0.42904285   3.93660276
H   -2.02641759  -0.45956030   2.43143463
H    0.87551083   1.87673221  -1.52401689
