49
Energy:  -1223.78125945
O   -0.46990486   0.42644792  -0.07713838
H   -0.18882849   0.57706320   0.82538196
H   -1.35499064   0.78881017  -0.11649079
O   -2.71932578   1.73359796  -1.09257084
H   -3.64872409   1.91518026  -0.95300548
H   -2.70046686   1.14510135  -1.84725483
O   -1.34820010  -3.46584532   0.39524346
H   -1.07578409  -3.00036959  -0.39554963
H   -1.38760956  -4.38503447   0.13110325
O    1.99586680   2.15672400  -0.96851983
H    1.91642640   2.63186309  -0.14137781
H    2.53579832   1.39518809  -0.75693331
O    0.48285600   1.03560804   2.39931247
H    1.26435455   0.48289506   2.39978680
H   -0.15409174   0.55107282   2.92443630
O   -0.38319775   3.15331739  -1.31976636
H   -0.19196858   3.50835941  -0.45166013
H   -1.28491772   2.83837869  -1.25694469
O   -1.98966760  -0.00017904  -3.12643625
H   -1.62190728  -0.76686082  -2.68691008
H   -2.41336989  -0.35249239  -3.90911340
O   -0.55834041  -1.78979034  -1.61368162
H   -0.51820915  -1.07444985  -0.97893024
H    0.30863940  -1.79968515  -2.01924291
O    0.46988435   1.22119598  -2.88401895
H   -0.39962178   0.89527272  -3.11632255
H    1.03456125   0.44943563  -2.92594521
O    3.38269071  -0.15138915  -0.46873442
H    4.33937154  -0.13749185  -0.44044120
H    3.12053783  -0.42440399   0.41045305
O   -3.03762832  -1.69349923   1.67931220
H   -3.93038066  -2.03786832   1.70451207
H   -2.53588929  -2.36136118   1.21192563
O    2.56730097  -0.75038351   2.07177929
H    3.15039265  -0.97959556   2.79544895
H    1.89316258  -1.42983780   2.08232225
O    1.94348178  -1.08873788  -2.63080962
H    2.50957958  -0.89596288  -1.88341218
H    2.52029881  -1.51399232  -3.26537453
O    0.84962347   3.47104017   1.17729716
H    1.01634687   4.20079182   1.77386876
H    0.68097483   2.72466221   1.75237057
O    0.45229740  -2.39745605   2.22094065
H   -0.10557915  -2.88584856   1.61556609
H   -0.16081020  -1.93522424   2.79249350
O   -1.31376500  -0.71712609   3.53896020
H   -1.70304399  -0.81634230   4.40778116
H   -2.00623809  -0.98294999   2.93393910
H    0.66677531   2.15195053  -1.73267744
