49
Energy:  -1223.71629871
O    0.12533502   0.57104166  -0.35698703
H    0.02974230   1.02307361   0.48132138
H   -0.74912807   0.23169062  -0.54774086
O   -2.44788223  -0.15313246  -0.86577563
H   -2.70450522   0.20313300  -0.01521616
H   -2.53948280  -1.10076026  -0.76656506
O   -2.44215012  -2.85868799  -0.35741448
H   -1.50761571  -3.04884559  -0.43937403
H   -2.87073402  -3.52588636  -0.89350592
O    2.52418618   2.07150951  -1.10624311
H    2.22092996   2.76510330  -0.52041450
H    2.80425663   1.36809751  -0.52057772
O   -0.21726988   1.89121735   1.97508853
H    0.37776191   1.29536724   2.43020573
H   -1.08312886   1.49954894   2.08961331
O    0.34605695   2.87232354  -2.28968805
H    0.16191933   3.35594492  -1.48443309
H   -0.49386548   2.48322709  -2.53333970
O   -1.43429086   0.93845157  -3.19281789
H   -1.92669232   0.55467134  -2.46722476
H   -2.05781568   0.96482353  -3.91859551
O    0.28334918  -3.23109932  -0.35030637
H    0.70526104  -4.09024158  -0.36014590
H    0.90157757  -2.65496998  -0.79986224
O    1.37691146   0.56909383  -2.94956678
H    0.47443259   0.44736166  -3.24443121
H    1.58965676  -0.24147290  -2.48701639
O    3.23802305  -0.02624886   0.51349909
H    4.13588056  -0.03695718   0.84511496
H    2.69205859  -0.00923826   1.29954316
O   -2.69902438   0.61955526   1.80527788
H   -3.47024885   1.01588374   2.21070160
H   -2.71698836  -0.29228713   2.09588519
O    1.64843725   0.02510488   2.76644339
H    1.95931224  -0.08325087   3.66524682
H    1.12147600  -0.75622988   2.59893313
O    2.20808249  -1.61739739  -1.49870200
H    2.55170647  -1.13104830  -0.74928959
H    2.98364884  -1.98594981  -1.92166513
O    0.84681124   3.80344672   0.30848505
H    0.90931265   4.67864235   0.69105272
H    0.44085132   3.27096222   0.99250892
O    0.11429131  -2.09064892   2.16933901
H    0.21883929  -2.50922522   1.31488278
H   -0.82659860  -2.12788767   2.34130204
O   -2.64982630  -2.08746597   2.28174060
H   -3.14644719  -2.69229196   2.83290761
H   -2.71080060  -2.45940660   1.40186894
H    1.41683836   1.78573207  -2.08387544
