49
Energy:  -1225.35415355
O   -0.08610274   0.20607407   0.39105676
H    0.14722431   0.71689585   1.16620284
H   -1.01906850   0.02056200   0.49779020
O   -3.02890913   1.43944430  -1.39122216
H   -3.81983372   1.87487267  -1.70914080
H   -2.82283497   0.79313462  -2.06653622
O   -2.31411966  -2.50864010  -1.05805653
H   -1.44815768  -2.90402757  -0.95800427
H   -2.92202218  -3.24630322  -1.00766330
O    1.95777700   1.93641200  -0.88857653
H    1.83997986   2.63271621  -0.24242164
H    2.49445363   1.28214396  -0.44120268
O    0.58562713   1.57855902   2.61109040
H    1.24332642   0.95368767   2.91637599
H   -0.23209972   1.27991682   3.00904453
O   -0.52654964   2.56998315  -1.36895676
H   -0.40029899   3.14583599  -0.61484396
H   -1.44336731   2.30038931  -1.31421766
O   -2.00477054  -0.56606469  -2.97163240
H   -2.14184712  -1.30879499  -2.38359025
H   -2.27285750  -0.88854349  -3.83207917
O    0.24364287  -3.51334109  -0.85645894
H    0.92023306  -2.92341345  -1.18878852
H    0.58522849  -4.39096799  -1.02769598
O    0.51711533   0.43126323  -2.48977017
H   -0.33264301   0.06745688  -2.73834122
H    1.04994427  -0.33267714  -2.26904346
O    3.37872367  -0.09541201   0.28802962
H    4.32911293   0.00919666   0.33329706
H    3.10943851  -0.23755273   1.19550599
O   -2.70153020  -0.35812291   0.68864758
H   -3.01439949   0.29448014   0.06218615
H   -2.69516962  -1.17924813   0.19676878
O    2.44942930  -0.48103775   2.85856206
H    2.83766298  -0.82167314   3.66446154
H    1.88792782  -1.18975890   2.54445654
O    2.11744421  -1.64188332  -1.66937796
H    2.55430179  -1.23895153  -0.91902253
H    2.82862683  -1.86394659  -2.27032640
O    0.73689796   3.68662554   0.87176764
H    0.85752273   4.55169090   1.26335854
H    0.66661693   3.09260433   1.61905020
O    0.79367925  -2.10881230   1.48127231
H    0.59910389  -2.81124033   0.86081511
H    0.43005462  -1.32212044   1.07491669
O   -1.85867433   0.52579210   3.21417387
H   -2.46035807   0.37945298   3.94410084
H   -2.30866369   0.15625540   2.45444757
H    0.62196391   1.58594234  -1.54802866
