49
Energy:  -1225.20823826
O   -0.09541862   0.05952824   0.19890151
H    0.06125096   0.57392508   0.99078684
H   -0.99364733  -0.25770760   0.29259496
O   -3.09541753   1.44462996  -1.11870925
H   -3.90528241   1.95225375  -1.17036975
H   -3.02190868   1.02227744  -1.97454022
O   -2.17966093  -2.33989509  -1.95814425
H   -1.23557679  -2.47201646  -2.04463660
H   -2.55651312  -3.21047949  -2.08580423
O    1.90759408   1.72211964  -1.07689716
H    1.86338135   2.47765403  -0.49085548
H    2.46146963   1.09248812  -0.61535856
O    0.39283188   1.55375980   2.42025347
H    1.17786322   1.12932837   2.76639738
H   -0.33412932   1.06315624   2.80374715
O   -0.57010896   2.48992273  -1.40300411
H   -0.33512978   3.08653492  -0.69232096
H   -1.47217043   2.23283457  -1.21215699
O   -2.37127548   0.02056925  -3.35503589
H   -2.41629738  -0.85890813  -2.97990336
H   -2.75667587  -0.07022167  -4.22650328
O    1.50525668  -2.07388539   0.30725826
H    0.87726908  -1.35149105   0.30412155
H    2.36199636  -1.64715046   0.29602076
O    0.29094110   0.37455131  -2.69091869
H    0.51969170  -0.54607631  -2.56305240
H   -0.58475521   0.35288799  -3.07681830
O    3.41893596  -0.04730421   0.45233306
H    4.37380983  -0.01242270   0.39549097
H    3.23133609   0.02733569   1.38799701
O   -2.60684340  -0.85141593   0.38429343
H   -2.98098810  -0.05747345   0.00232100
H   -2.60160474  -1.48392416  -0.33413384
O    2.54764664  -0.02661624   3.08210896
H    2.99056924   0.06297775   3.92592430
H    1.99988788  -0.80545627   3.18009054
O    0.57764365  -2.34718284  -2.23026109
H    0.97271503  -2.40909140  -1.36059576
H    1.10419735  -2.93196989  -2.77523554
O    0.84285309   3.62057962   0.67903819
H    0.96690330   4.48437277   1.07236348
H    0.65576111   3.04413955   1.41994662
O    0.83539972  -2.18382027   2.96671765
H    1.06489421  -2.36359401   2.05499098
H    0.84109849  -3.04260017   3.38944266
O   -1.39583612  -0.43022588   2.97240503
H   -2.02392025  -0.71925775   2.31043618
H   -0.78720911  -1.16354264   3.06213540
H    0.53545814   1.44144190  -1.67059054
