49
Energy:  -1223.31937745
O   -0.02511551  -2.71568963   0.18477039
H   -0.95653166  -2.82458075   0.37670403
H    0.02554757  -2.72420031  -0.77105003
O    0.60598049  -1.26163667   2.28254043
H    0.85411562  -0.37076177   2.52952770
H   -0.28751676  -1.36168725   2.61099804
O   -1.77449694   1.33305060   2.23444345
H   -2.56452012   1.87195426   2.27540763
H   -2.05206786   0.47540204   2.55635210
O   -2.08478102  -1.32547098   2.90781998
H   -2.45213302  -1.79072461   2.15627264
H   -2.48369101  -1.74665855   3.66920274
O   -2.30724580  -1.03126933  -1.58734686
H   -2.60436589  -0.27972684  -2.10031410
H   -1.63556215  -1.44263541  -2.13126861
O   -2.75135998  -2.62567445   0.58874960
H   -2.79818477  -2.06450266  -0.18528239
H   -3.39181933  -3.31740675   0.42276741
O    2.09046442  -0.47533554  -2.42626707
H    1.84407732   0.41106230  -2.16202455
H    2.83288992  -0.35181652  -3.01768848
O    3.99310482   0.30158861   1.33456961
H    3.65422369   1.18984269   1.22323177
H    4.91283006   0.42339113   1.57015714
O    1.23338271   1.84828647  -1.29329490
H    0.56286126   1.34168662  -0.83504886
H    1.76645228   2.22799733  -0.59480486
O    0.89267921   1.43250658   2.90186096
H   -0.04207903   1.56051907   2.74039371
H    1.00484343   1.62994859   3.83173605
O   -0.54364385   0.28193954  -0.00563863
H   -1.20893431  -0.09952822  -0.57844122
H   -1.04305935   0.73727866   0.67221259
O   -0.73511087   3.00181062  -2.84394503
H    0.02173634   2.70785952  -2.33698655
H   -0.43433340   3.79596334  -3.28563068
O    0.00121453  -2.27415678  -2.53502400
H    0.70908811  -1.64166791  -2.65792507
H    0.07659136  -2.86700278  -3.28274306
O   -2.84233070   1.25693869  -2.91908963
H   -2.13245795   1.89905338  -2.91797140
H   -3.50343292   1.63106807  -3.50150092
O    2.54245867   2.62449277   1.03523269
H    2.72832917   3.52575371   1.29869563
H    1.94785486   2.29521399   1.70921610
O    2.17233379  -1.30166717   0.18311829
H    2.87842000  -0.81836163   0.61217525
H    2.24487621  -1.06263609  -0.74091287
H    0.90592469  -1.71662725   0.87853710
