60
 energy: -86.987686271385 gnorm: 0.000188855369 xtb: 6.3.3 (5b13467)
C         2.92458529894170    1.37560025732301   -2.81597708489861
H         3.02105648742408    0.29080599816271   -2.74518563726410
H         3.66013400016661    1.77144597714805   -3.51436246291836
H         1.91778678186346    1.61999828403915   -3.15253374435229
C         3.13332559735356    1.93194575297832   -1.52201365863169
N         3.30328456467167    2.37535128949231   -0.47900447507845
C         0.08041348972783   -3.07593834186892    2.57001718112546
H         0.16688623422777   -3.53011291327121    1.58013931378317
H         0.03881132940623   -3.85403365058517    3.33032181515131
H         0.94249206759865   -2.43055628466628    2.74812248799562
C        -1.10499400808209   -2.29082313720394    2.61296960365629
N        -2.05663535549070   -1.65146238126750    2.63437805120992
C         2.66075541381823    1.62299167173268    2.53766139727388
H         2.99967863861224    1.92247215568707    1.54305378332706
H         3.36377235036982    1.97824196100361    3.28919005249653
H         1.67277611219531    2.04732904971275    2.72536147609311
C         2.57412654159087    0.20394725292127    2.58583804577239
N         2.49580024309429   -0.93974482194314    2.61154133596931
C         3.35062134465821   -3.08376200410376    0.34951717537258
H         2.55493214968399   -3.82838333794473    0.33061328598380
H         3.24372692096415   -2.45880760907218    1.23753534865462
H         4.32133338914213   -3.57665517431880    0.36080815727923
C         3.23602549206539   -2.26422555655519   -0.81469256155805
N         3.13821984539802   -1.60621821646419   -1.74625395706632
C        -4.35921966528170   -1.35381181266415    0.38932991447941
H        -4.61907356528782   -0.29568821762880    0.36531587691930
H        -3.75062875573463   -1.55933559191304    1.27139389707657
H        -5.26398238562247   -1.95880250182555    0.41715147101559
C        -3.60365280805918   -1.66488103065586   -0.78216000481063
N        -2.99440914162413   -1.90894991999514   -1.72006998462164
C        -0.33498433648862   -3.27918205236063   -2.78769884499136
H         0.36716787959194   -2.53251740368519   -3.15678361215604
H        -1.32453211490235   -2.82530149664651   -2.71037340608062
H        -0.36622658175861   -4.13223589887783   -3.46356137320525
C         0.06977703847417   -3.70089661325964   -1.48939287164438
N         0.38987651289036   -4.04023164149004   -0.44257772953802
C        -2.65100900178222    1.83165434855748   -2.80202889508777
H        -2.36883080494919    0.83511025167408   -3.13968013774877
H        -1.75471613726237    2.45118562918961   -2.73956520386223
H        -3.36423915506685    2.27478706545583   -3.49516198184290
C        -3.22708203588197    1.74005273946032   -1.50304072747030
N        -3.68802871887284    1.67112331315805   -0.45607838403155
C        -2.69559635586445    1.50732404048181    2.55780854107732
H        -3.13395751512040    1.64456959553874    1.56652860657696
H        -3.34816243763026    1.94208890401453    3.31304511997920
H        -2.56577792747950    0.44089260638552    2.75080740511545
C        -1.42397339660535    2.14413484629060    2.58983611834456
N        -0.39544552270688    2.65080871371910    2.60263566836110
C         0.00895868904428    0.00268784711720   -0.01204385331681
H        -0.08663238699392    1.03444872749337    0.32372068735592
H         0.94474310022148   -0.41493809940143    0.35698541244380
H        -0.82659337831553   -0.58307189806219    0.36888747711527
C         0.00277180092740   -0.03424505840198   -1.44164574058411
N        -0.00252276963680   -0.06308586910114   -2.58480872943305
C         1.00157336981718    4.46252025427081    0.32723921103489
H         0.52411466204725    4.05429599818090    1.21950167246421
H         0.90537394936867    5.54699491567838    0.32156729875840
H         2.05449831244877    4.18162760864465    0.31749618465795
C         0.37200549686190    3.91345721905682   -0.83124399742232
N        -0.13049884287105    3.46800425270308   -1.75837999319336
