13
Energy:   -564.65177081
O    1.34580233  -1.75995681   0.24059627
H    1.43051297  -2.47440472   0.87195999
H    1.71711087  -2.11004338  -0.56921927
O    0.16874555  -0.23365894   2.00305760
H   -0.71377445   0.08188932   2.19753021
H    0.74575407   0.34474634   2.50179635
O   -0.94243250  -0.46260452  -0.38282697
H   -1.77995256  -0.74425451  -0.75088304
H   -0.71875314   0.32850881  -0.87307089
O   -0.61527873   2.30708934  -1.76791493
H    0.29518395   2.53902362  -1.95093418
H   -1.12549580   3.02743460  -2.13806774
H    0.24381674  -0.85992252   0.63985464
