13
Energy:   -571.25983979
O   -1.95674417  -0.65331169   0.41200123
H   -1.78671851  -1.20546631   1.17518430
H   -2.84741729  -0.32862711   0.54433856
O    1.24923258   2.04748610  -0.18597372
H    2.13489850   2.01183789   0.17535290
H    1.11498655   2.97036500  -0.40162250
O   -0.10140848  -0.01228409  -1.43555243
H    0.36838633   0.81581244  -1.33665446
H    0.15522950  -0.33198083  -2.30051647
O    0.54592815  -1.46203118   1.01924087
H    1.04836130  -2.26742952   0.89625190
H    0.88793793  -1.08741188   1.83098069
H   -0.75471074  -0.51121167  -0.32613549
