13
Energy:   -574.27437266
O    0.69060004   1.03666683  -0.29836244
H    1.14428595   1.86425677  -0.45803660
H   -0.03089796   1.03325953  -0.92737824
O   -1.22047756   0.48052386  -2.16677762
H   -1.74118537  -0.27453356  -2.44060882
H   -1.11301069   0.99967914  -2.96374720
O   -0.58180068   0.14218593   1.94314576
H   -0.47183117   0.56323658   2.79570363
H   -1.30751527  -0.46910644   2.06920849
O    1.20951665  -1.46021388   0.58576433
H    1.48839103  -1.98081174  -0.16752101
H    1.44012281  -1.99480301   1.34554529
H    0.49674992  -0.05537986   0.73122487
