13
Energy:   -579.69576010
O    1.53561888   0.59313600  -1.33434592
H    2.13157235  -0.11921047  -1.10275615
H    1.84759366   0.89982312  -2.18572515
O   -0.50451563  -2.19920828   1.71697596
H   -1.33067312  -2.67507852   1.63186924
H    0.14339405  -2.87622276   1.91215868
O   -1.05731999   1.34166880  -1.28334689
H   -1.67777856   1.49991444  -0.57185456
H   -1.43676744   1.79285214  -2.03745899
O    0.03864198   0.43272727   0.90806274
H   -0.24916630  -0.41799006   1.23923983
H    0.33146943   0.90669387   1.68641973
H    0.24945507   0.82229747  -0.65791285
