13
Energy:   -564.67617577
O   -0.85173421  -1.68975947  -0.54246643
H   -1.41064786  -1.37858279  -1.25451731
H   -1.24581504  -2.51944654  -0.27311258
O    0.91656910   0.24702901   0.07556023
H    1.03882429   0.90477824  -0.60902101
H    1.64954390   0.38578542   0.67533222
O    0.72552248   2.06495057  -1.86662652
H    0.29727584   2.92071179  -1.84405658
H    1.13117370   2.02235387  -2.73257367
O   -0.72102551  -0.75310305   2.35379798
H   -1.03116149  -1.45205532   2.92956985
H   -0.46160689  -0.04950855   2.94868336
H   -0.08435019  -0.71254614   0.14479659
