13
Energy:   -580.42074841
O    0.11082813  -1.47468231  -0.25943048
H    0.15583946  -1.52560986  -1.21421434
H   -0.04815745  -2.37573934   0.02173078
O    0.12158805   1.11981557   0.45665443
H   -0.02561286   1.42245027  -0.43943484
H    0.43128886   1.89556525   0.92412603
O    0.03650223  -0.80931043   2.34275521
H   -0.65221228  -0.94622290   2.99326205
H    0.84648801  -0.78526942   2.85224212
O   -0.37298003   1.24024411  -2.41523623
H   -1.01524866   0.95154184  -3.06359867
H    0.37518107   1.53614281  -2.93382159
H    0.10526552  -0.32764554   0.75221286
