13
Energy:   -579.20797834
O    1.50190412  -2.24219251  -0.35315131
H    2.34796975  -2.18764564  -0.79748163
H    1.47486535  -3.13011435   0.00335335
O   -0.10943668   1.79165329  -1.07122691
H    0.05566576   2.72632025  -1.19520553
H   -0.24424231   1.45232553  -1.95605229
O   -0.66668876  -0.68365022  -0.13951127
H   -1.43725502  -1.22499836  -0.31098044
H    0.07022157  -1.29252923  -0.18912342
O   -0.82419919   1.31380306   1.57436138
H   -0.94826142   0.53110447   2.11122574
H   -0.74145629   2.02778307   2.20651485
H   -0.47979228   0.92503823   0.12584010
