13
Energy:   -565.35562140
O   -1.20277115   0.75157958   1.67862959
H   -1.84871762   0.78838778   2.38405865
H   -0.96315859   1.66543286   1.52471452
O    0.14541915  -0.29264194  -2.13154341
H   -0.11737900  -0.65123674  -2.97923366
H    0.58278127   0.53164662  -2.34483805
O    1.32134851   0.72119982  -0.01593351
H    2.11642208   1.24561324  -0.11122488
H    1.27868120   0.51762232   0.91839382
O   -0.35371675  -1.43063639   0.25303667
H   -0.80400060  -0.87329789   0.88774140
H   -0.35021187  -2.29887445   0.65600346
H    0.27556899  -0.60687842  -0.67901674
