13
Energy:   -570.21156106
O    0.51520140  -1.53215486   0.88158240
H    0.55192266  -2.35836410   1.36351777
H    1.39804046  -1.42060219   0.52890260
O    0.00274683   0.48048451  -2.86531234
H   -0.74960801   0.63388259  -3.43685681
H    0.71977474   0.27043687  -3.46362899
O    0.20114382   0.91544615  -0.16984033
H    0.74348720   1.70154420  -0.10545592
H    0.18449659   0.71129084  -1.10486724
O   -1.05652822   0.19837116   2.12956098
H   -1.00101888   0.92956854   2.74478529
H   -1.11311141  -0.57899997   2.68519063
H   -0.23946154   0.01710090   0.93121063
