13
Energy:   -560.47089367
O    1.08529912  -1.31237110  -0.46220230
H    1.16654076  -1.37358531  -1.41398193
H    1.61282086  -2.03832943  -0.12912998
O    0.28965958  -1.23895216   2.07547769
H    0.61391572  -2.13953826   2.06960733
H    0.34316800  -0.97059182   2.99272980
O   -1.25434594   1.81026795  -2.09526179
H   -0.79279643   2.54820885  -2.49356711
H   -2.05682499   1.72320411  -2.60973152
O   -0.13811432   0.91591059   0.59617040
H   -0.29368665   1.30716046  -0.26345314
H   -0.94541710   1.07923460   1.08383763
H    0.42789818  -0.45808594   0.66231618
