13
Energy:   -564.94684485
O   -0.60352738  -0.17426763   0.68480624
H   -1.20747471  -0.83396251   1.02580793
H   -1.12853969   0.33575094   0.06797970
O    1.82290610  -0.25429827   1.79106917
H    1.54337103  -0.96188252   2.37194482
H    2.49662366   0.21112618   2.28676724
O   -2.55829860   1.12838689  -1.48887759
H   -2.55495007   1.22744650  -2.44093212
H   -3.41767739   1.45061466  -1.21708869
O    1.47125156  -0.62519603  -0.83409937
H    2.30905770  -0.88502480  -1.21724652
H    0.90985896  -0.44082519  -1.58714492
H    0.95332543  -0.24660378   0.53413872
