13
Energy:   -560.43358296
O   -0.00970466   1.19818964  -2.15489738
H   -0.69048272   1.43687126  -2.78402707
H    0.80956352   1.29075930  -2.64117132
O   -0.35324730   0.90435069   0.51104124
H   -0.86413532   1.55377095   0.99423747
H    0.22887170   0.52060622   1.16686859
O    0.98223205  -0.74557841   2.50516792
H    0.78720542  -1.54696606   2.99093979
H    1.54763929  -0.24170118   3.09053467
O   -0.58412478  -1.24233053  -1.07277488
H   -0.47257155  -1.39773954  -0.13488589
H   -1.03509730  -2.02335748  -1.39348121
H   -0.41211390   0.26003991  -1.08523798
