13
Energy:   -563.79429177
O    0.25080540   0.58768676   1.86131285
H    0.03408982   1.51328869   1.74938761
H    0.92418155   0.57942350   2.54155408
O   -1.08055194  -0.01441687  -0.51346328
H   -1.93410277   0.15818512  -0.91081877
H   -0.45490792   0.42799884  -1.08710930
O    0.97034841   1.24327203  -1.93695568
H    0.42126179   1.75231729  -2.53328499
H    1.79805865   1.13586587  -2.40556161
O   -0.11929178  -1.95372130   0.86772658
H   -0.07693013  -2.82658671   1.25829452
H   -0.60785220  -2.07832604   0.05408401
H   -0.15425056  -0.50769432   1.01824533
