13
Energy:   -571.43299435
O    0.68785350  -1.91514597   0.31101211
H    0.42574129  -2.83575872   0.30991957
H    0.99666007  -1.75248522  -0.58028573
O   -0.29671631  -0.31374468   2.33170684
H   -0.03773334  -0.53366111   3.22657914
H   -0.70509658   0.54884429   2.40517573
O    0.45719706   1.80794198  -2.17923267
H    1.29664979   1.77228248  -2.63779495
H   -0.13194748   2.24925415  -2.79110203
O   -0.74709217   0.28051503  -0.22920562
H   -1.67660270   0.48212299  -0.33689153
H   -0.29650123   0.93062012  -0.76824459
H   -0.03124175  -0.72655251   0.91417720
