13
Energy:   -574.94015038
O   -2.14885582   0.25876655   0.10523355
H   -2.68157572  -0.28518997  -0.47489804
H   -2.65781643   0.31718041   0.91379942
O   -0.24155240   1.68427205  -1.25336510
H   -0.39050603   2.11904578  -2.09301769
H    0.70923382   1.58846795  -1.19805699
O    0.39895566   0.30153963   0.86767851
H    0.86508801  -0.47826333   0.56624888
H    0.72560909   0.44824481   1.75537607
O    1.81957037  -1.99362736   0.23249385
H    1.71134403  -2.78509813   0.75983903
H    2.72755688  -2.02810201  -0.06851087
H   -0.83833091   0.80735100  -0.09772188
