41
Energy:  -1096.46043771
O    2.17425953  -3.22386656  -0.15395166
H    2.69566121  -2.63352282   0.38998437
H    1.27836637  -2.89681063  -0.07245490
O   -3.30406860  -0.26420002  -1.09119299
H   -2.73245865  -0.03872574  -0.35726161
H   -2.91608898  -1.05632281  -1.46300630
O    3.48892565  -1.00395233   0.85202198
H    3.42071550  -0.82904641  -0.08658717
H    2.66741621  -0.67578291   1.21761591
O    0.12535598  -1.50881598   3.70524671
H   -0.65859409  -1.86018650   3.28311771
H    0.55679834  -0.99629381   3.02157254
O    2.72739757  -1.09152798  -1.82933365
H    2.49580828  -1.94062866  -1.45300099
H    1.97387059  -0.53205442  -1.64113622
O   -0.91086175   3.41489169  -1.54692223
H   -1.15305448   2.60173992  -1.99004608
H   -0.01213169   3.26881132  -1.25166531
O   -1.38723486   0.90219040  -2.65536567
H   -0.62807389   0.71303858  -2.10388760
H   -2.13987097   0.63665416  -2.12691393
O    0.93299101   2.49194910   2.06809101
H    1.03650164   1.54375107   1.98785450
H    0.01764948   2.65363175   1.83952930
O   -1.62603515   2.81579061   1.06134459
H   -1.46147859   3.11502804   0.16713548
H   -1.61912816   1.86059222   0.99986147
O    1.54741659   2.73740693  -0.59256976
H    1.30306720   1.84028212  -0.81992919
H    1.47166258   2.77243729   0.36098467
O   -2.02012792  -2.24624238   2.09967462
H   -2.19510764  -1.31972013   1.93484001
H   -1.38499778  -2.49377847   1.42768694
O   -1.57486066  -2.06439549  -2.26689342
H   -1.06741015  -2.17069204  -1.46226501
H   -1.24829994  -1.25065223  -2.65083594
S    0.00709873  -0.40490540   0.31351914
O    0.52975771   0.25316082  -0.91687772
O    0.96219006  -0.18841793   1.43647673
O   -1.31610874   0.18197431   0.66678141
O   -0.14744412  -1.86633880   0.06769616
