41
Energy:  -1095.26356599
O    1.74374367  -2.69577674  -1.01938991
H    2.36003596  -2.18486769  -0.49461604
H    0.88022649  -2.40425379  -0.72684197
O   -3.26629465   0.21833584  -1.67363115
H   -2.74759288   0.49229596  -0.91724092
H   -2.74000004  -0.46341550  -2.09131636
O    3.17279046  -0.83668200   0.44994207
H    3.25329088  -0.29079431  -0.33220763
H    2.38448391  -0.51476890   0.88717952
O   -1.88513021  -2.62827941   1.72847304
H   -2.37921068  -1.85576354   2.00294630
H   -1.38785507  -2.33616637   0.96452327
O    3.05231903   0.59963586  -1.89054570
H    2.22180191   0.89401553  -1.51662889
H    2.80273935  -0.04976957  -2.54797587
O    0.93102431   3.35820267  -0.68637050
H    1.18529369   3.22587927   0.22690353
H    0.72058237   2.48097944  -1.00641024
O    1.10483548  -1.01561444  -3.11997042
H    0.80454568  -0.31076486  -2.54617171
H    1.33294122  -1.72928993  -2.52426335
O   -0.14753476  -1.27297739   3.39924766
H    0.28948215  -0.72955061   2.74355306
H   -0.60770804  -1.94013329   2.88995853
O   -1.43382047   3.42954459   0.72251407
H   -0.74854571   3.58480326   0.07249476
H   -1.62954191   2.49565545   0.64651388
O    0.92465603   2.76403503   2.02512419
H    0.02196488   3.00269176   1.81435536
H    0.96309701   1.81868897   1.87995196
O   -2.58881732  -0.14006041   2.72182124
H   -1.75406387  -0.34789490   3.14161089
H   -2.34464807   0.26750804   1.89085722
O   -1.55693757  -1.80957141  -2.65196764
H   -1.30996264  -1.79994314  -1.72722847
H   -0.77043521  -1.51859538  -3.11346395
S   -0.19842046   0.05834330   0.08469227
O    0.43884041   0.70758648  -1.09534242
O   -0.47010183  -1.37401042  -0.22296347
O    0.71728807   0.14960839   1.25654917
O   -1.47970851   0.75018876   0.40052582
