41
Energy:  -1096.11536304
O    2.64810769  -1.82004237  -0.67717007
H    2.91602732  -1.09246125  -0.11585320
H    1.70035563  -1.87953838  -0.55692819
O   -3.58986803  -1.26259308  -1.36976296
H   -3.13711436  -0.81020959  -0.65800799
H   -2.94928663  -1.89285052  -1.69940348
O    2.89847370   0.81814591   0.31280509
H    2.70877971   0.81309295  -0.62539665
H    2.04677428   0.69034230   0.73054445
O   -0.77127016  -3.16619152   1.72113599
H   -1.53151492  -2.65480736   1.99816668
H   -0.45560000  -2.72031552   0.93514694
O    2.19139800   0.39136715  -2.28306083
H    2.32165739  -0.50818981  -1.98295818
H    1.28334505   0.59114322  -2.05554994
O    2.52938902   3.51952179   0.38018944
H    1.73401944   3.55043062  -0.15147185
H    2.77840305   2.59529775   0.38600307
O   -2.07024910   0.20007472  -3.14874860
H   -1.39875336   0.53016062  -2.55178243
H   -2.76400658  -0.12365683  -2.57417893
O    0.28312085  -1.18064067   3.32874171
H    0.39361825  -0.51148003   2.65328171
H    0.12695493  -1.98974811   2.84172097
O   -0.02744121   3.40215711  -0.61575826
H   -0.15101180   2.51616494  -0.95631666
H   -0.16408856   3.31777703   0.32787268
O    0.43449093   2.96844538   2.09311516
H    1.27065329   3.21878218   1.70018279
H    0.33473409   2.04176613   1.87506472
O   -2.44107151  -1.21516742   2.79004858
H   -1.58323667  -1.04240745   3.17799862
H   -2.41477346  -0.77159053   1.94223975
O   -1.32443198  -2.39764763  -2.52809271
H   -0.79804667  -2.23624633  -1.74508571
H   -1.42650078  -1.53521970  -2.93062453
S   -0.45512972  -0.11150127   0.00677100
O   -0.26981576   0.75041226  -1.19442166
O   -0.00543738  -1.49792435  -0.30259586
O    0.35029908   0.43139057   1.13666166
O   -1.89556484  -0.12988357   0.38743986
