41
Energy:  -1094.53935342
O    2.65197359  -2.47628791  -0.40608658
H    3.00339899  -1.81564745   0.19081057
H    1.70310632  -2.35763446  -0.36361186
O   -3.16611414  -0.86053764  -1.77974726
H   -2.74523490  -0.45820936  -1.01999436
H   -2.62018440  -1.62027510  -1.98221097
O    3.34739135   0.00899839   0.69013375
H    3.27208555   0.08875839  -0.26076016
H    2.44474804   0.04706312   1.00638993
O   -1.17199128  -3.04594042   1.79311397
H   -1.65834683  -2.30192645   2.14826650
H   -0.68733236  -2.68380286   1.05136335
O    2.84980747  -0.20786304  -1.98628965
H    2.76966971  -1.11686322  -1.69727675
H    1.97496550   0.16084002  -1.86405456
O    0.49826693   3.21896247  -0.51273944
H    1.14248038   3.09874684   0.18494894
H    0.42993885   2.35881122  -0.92710999
O   -1.19575723   0.16941732  -3.41548941
H   -0.56140811   0.41629649  -2.74252305
H   -2.00719968   0.00993738  -2.93345295
O   -0.75472749   1.33311032   3.21545655
H   -0.16803349   0.84206789   2.64021805
H   -1.21331800   1.93714716   2.63144790
O   -1.80821470   2.69202058   0.99114466
H   -1.06005473   3.02172847   0.49336839
H   -1.90342274   1.78283823   0.70732300
O    2.19797361   2.47330837   1.52198035
H    1.50874150   1.81167573   1.58057388
H    2.96521711   1.99360874   1.20979850
O   -2.51932614  -0.70825465   2.57685678
H   -1.96199349  -0.09580655   3.05698124
H   -2.37064867  -0.49622353   1.65535276
O   -1.05617642  -2.47583080  -2.58487862
H   -0.62581077  -2.35251592  -1.73882266
H   -0.93157402  -1.64360902  -3.04107266
S   -0.11361408  -0.18369416  -0.03291561
O    0.36374397   0.56517693  -1.22933585
O    0.07961943  -1.64480318  -0.25182481
O    0.66241299   0.24606045   1.16424477
O   -1.56023271   0.09878916   0.18525345
