41
Energy:  -1111.59302088
O    2.59776514  -2.44599151  -0.11494972
H    2.96237734  -1.74884619   0.43028251
H    1.65687700  -2.27077611  -0.13110258
O   -3.05935609  -0.56360463  -1.75133274
H   -2.62193732  -0.14116324  -1.01211698
H   -2.55787862  -1.36511235  -1.90079029
O    3.46469313  -0.00274964   0.86043786
H    3.46427207   0.09866087  -0.09137493
H    2.57049753   0.21303534   1.12516967
O   -1.23952277  -2.75356001   1.90420248
H   -1.88088915  -2.05999591   2.05863644
H   -0.75365096  -2.46355581   1.13215456
O    3.03160634  -0.33509062  -1.85513862
H    2.89655834  -1.20379179  -1.47651986
H    2.18071507   0.09612748  -1.77597522
O    0.83418556   3.31991223  -1.01331191
H    0.97449566   3.32644565  -0.06647389
H    0.80508799   2.39168320  -1.24520855
O   -0.98706959   0.19546246  -3.42519688
H   -0.34174950   0.43322367  -2.75941656
H   -1.81623972   0.14741419  -2.94938167
O    0.09216214  -0.88600874   3.45702002
H    0.45531796  -0.34559196   2.75537951
H   -0.18491821  -1.69157946   3.02054078
O   -1.70285441   3.13653745   0.08312700
H   -0.96121939   3.29300845  -0.50144649
H   -1.77044803   2.18314499   0.13514388
O    0.52452973   3.07912866   1.72867816
H   -0.36608723   3.15639281   1.38653268
H    0.72286178   2.14437459   1.67272210
O   -2.47163602  -0.35854676   2.55087197
H   -1.64437961  -0.34727945   3.03227797
H   -2.25177986  -0.00810505   1.68768849
O   -1.08449619  -2.38549052  -2.42441151
H   -0.65179755  -2.23239441  -1.58443216
H   -0.88608693  -1.60531988  -2.94229121
S   -0.00000213   0.00000065   0.00000176
O    0.56315610   0.62215165  -1.23120941
O    0.05354969  -1.48384335  -0.12425275
O    0.79842934   0.42849823   1.18279381
O   -1.41514366   0.43319609   0.17267540
