60
Energy:   -337.60168255
O   -1.87896804  -1.24963183  -2.89540685
H   -1.93766743  -0.30096191  -2.70831585
C   -1.86877962  -1.41056193  -4.30485052
H   -1.80231952  -2.48470750  -4.49792966
H   -1.00394563  -0.92375559  -4.78219640
H   -2.78684552  -1.03401443  -4.78249508
O    2.80217767   0.06045179  -2.26021918
H    2.08474451  -0.58201626  -2.15558769
C    4.01792925  -0.59562580  -1.93766057
H    4.81535815   0.14223448  -2.06076440
H    4.23278587  -1.44500966  -2.60486446
H    4.04373508  -0.95580572  -0.89728476
O   -1.78978456   1.46977363  -2.20636463
H   -2.16954271   1.83515954  -1.39352998
C   -0.39671419   1.73731558  -2.18875718
H    0.01518309   1.31911550  -3.11121830
H    0.11701572   1.26126363  -1.33891398
H   -0.17086157   2.81503658  -2.17186382
O    2.65892397   2.32313056  -0.62266835
H    2.76753723   1.58919354  -1.24553502
C    3.05233060   3.51326569  -1.28700513
H    2.92374456   4.32976821  -0.57127162
H    2.43176422   3.73240057  -2.16998565
H    4.10811014   3.49656446  -1.59977974
O    1.74484158  -1.37280809   2.93709587
H    1.77755992  -0.49875580   2.52070017
C    2.66319131  -1.36911355   4.01837007
H    2.61356661  -2.36084122   4.47608047
H    2.40972028  -0.62438101   4.78902124
H    3.70104330  -1.19427894   3.69421973
O   -2.66748469  -0.42622477   1.36205256
H   -2.13882410  -1.02028894   1.91525145
C   -3.27012381  -1.20885153   0.34379168
H   -3.86172369  -0.52418607  -0.26999004
H   -3.94693501  -1.97971385   0.74438525
H   -2.53115985  -1.70015602  -0.30838123
O    0.67399324  -1.69941439  -1.77054140
H   -0.21362404  -1.69121033  -2.15847378
C    0.52695660  -1.74128370  -0.36016522
H    1.53602636  -1.75002177   0.06077071
H    0.00470904  -2.64684463  -0.01376339
H   -0.00166369  -0.86131702   0.03857852
O   -2.80714400   2.17063974   0.32968815
H   -2.79933969   1.29515005   0.74427247
C   -3.77081242   2.95984500   1.00868152
H   -3.76654668   3.94240821   0.52906028
H   -3.53164341   3.09922628   2.07458413
H   -4.78888401   2.54699856   0.93209574
O   -0.94520224  -2.13754062   2.77616262
H   -0.00690184  -1.93009695   2.89856668
C   -1.10727969  -3.53259217   2.97640214
H   -2.16964465  -3.74895887   2.83479937
H   -0.82630930  -3.85185785   3.99222810
H   -0.53670703  -4.13521974   2.25247936
O    1.64677966   1.14279004   1.72542066
H    2.02411892   1.63063572   0.97839659
C    0.30283762   1.56885519   1.88297083
H   -0.10698413   1.00955709   2.72838019
H   -0.31767047   1.35441983   0.99879634
H    0.22135275   2.64284897   2.11248097
