60
Energy:   -338.50467092
O   -2.73241471  -2.10141553  -0.55865648
H   -2.63298287  -1.52290471  -1.32928078
C   -4.11822069  -2.20318391  -0.27279154
H   -4.21216581  -2.85816192   0.59764704
H   -4.69132936  -2.65043856  -1.10000799
H   -4.57271733  -1.23241107  -0.02018470
O   -2.19304281  -0.44464670  -2.73912387
H   -1.42528956   0.14450105  -2.78251914
C   -2.26132401  -1.15376550  -3.96591724
H   -3.13146756  -1.81254284  -3.89997932
H   -1.37270836  -1.77889928  -4.14577088
H   -2.40062686  -0.49001929  -4.83356521
O   -0.52322257  -0.67053366   3.09231687
H    0.21562055  -1.27482932   2.92690564
C   -1.72044833  -1.42969564   3.03886283
H   -2.54242065  -0.73374126   3.22726195
H   -1.75837110  -2.21857082   3.80633605
H   -1.88560592  -1.89455112   2.05427679
O    0.11435514   1.12612420  -2.75848009
H    1.00040711   1.01743581  -2.38228598
C   -0.14826717   2.51747212  -2.84631094
H   -1.14998348   2.62184403  -3.27193534
H    0.55954224   3.04299050  -3.50632124
H   -0.14144342   3.01437889  -1.86355236
O    2.61191031   0.76578639  -1.50203610
H    2.72550320   0.44032139  -0.59672264
C    3.26460315   2.02208137  -1.59285883
H    3.12683717   2.37424122  -2.61876779
H    4.34628587   1.95441996  -1.39750848
H    2.83513008   2.77454550  -0.91305891
O    2.83554272  -0.18731460   1.14505403
H    2.45394563  -0.97190232   1.56603984
C    2.56089188   0.92592596   1.98039596
H    2.99758154   1.80094239   1.49138309
H    3.01533396   0.83062937   2.97898411
H    1.48197512   1.10773836   2.10553669
O    1.48606504  -2.46585021   2.17337768
H    0.98121187  -2.72643390   1.38874867
C    2.39542456  -3.51413357   2.46782809
H    2.95583716  -3.20420964   3.35403917
H    3.11543039  -3.69359074   1.65409345
H    1.88874806  -4.46412641   2.69927974
O    0.73778382   3.58879275   0.62359065
H    0.09787056   2.92005486   0.90946461
C    0.67650908   4.66512063   1.54570640
H    1.40337255   5.40919936   1.20880654
H    0.94643706   4.36352458   2.56989195
H   -0.31449219   5.14456623   1.57444206
O   -0.05404972  -2.90039754  -0.10391691
H   -0.99744456  -2.72495497  -0.23676777
C    0.66276982  -2.16183694  -1.08025280
H    1.72336200  -2.37094508  -0.91623083
H    0.51078128  -1.07505487  -0.98761619
H    0.41096463  -2.46141910  -2.10963223
O   -1.10263492   1.64891979   1.56822877
H   -0.94508947   0.89222890   2.15219932
C   -1.66189111   1.15298980   0.36248430
H   -1.83302389   2.01826400  -0.28365758
H   -2.62750813   0.64691096   0.51819337
H   -0.98784701   0.46053064  -0.16566549
