60
Energy:   -338.78296413
O   -1.49264361   2.87574754  -1.05993110
H   -0.53086036   2.90409363  -1.17214852
C   -1.98304531   4.19805739  -1.21334758
H   -3.06758318   4.14789344  -1.08393980
H   -1.77728542   4.61474879  -2.21175055
H   -1.58079983   4.89110079  -0.45792270
O   -1.96368385   0.11446624  -1.47258114
H   -1.94256483   1.07733665  -1.36838023
C   -0.72743614  -0.28394836  -2.04309948
H   -0.76822871  -1.37097210  -2.15355559
H    0.13486187  -0.03789025  -1.40382263
H   -0.55786995   0.15427034  -3.03908593
O   -0.86908691   0.68826601   3.11557623
H   -1.41731944  -0.11011650   3.13678317
C   -1.32004899   1.49153347   2.03672112
H   -0.69189855   2.38642139   2.02734885
H   -2.36752679   1.81091075   2.15319323
H   -1.21578738   0.99103270   1.06132078
O    1.27557459   2.69727183  -1.41328622
H    1.70545825   2.16789027  -2.10131127
C    1.85317566   2.33651232  -0.16879300
H    1.35757663   2.94204683   0.59487890
H    2.93309724   2.54757572  -0.12408332
H    1.69580086   1.27567418   0.08147275
O    1.77201714  -1.46811725   0.76011997
H    1.92040735  -0.80898094   1.45434108
C    0.49462446  -2.04470757   0.97999567
H    0.34365639  -2.78469651   0.18935656
H   -0.32110268  -1.30747983   0.91785199
H    0.42263275  -2.56168734   1.94969998
O   -2.44331423  -1.64092640   2.87514642
H   -2.65923065  -1.84285228   1.95263392
C   -3.66146257  -1.58551952   3.60011435
H   -3.39990426  -1.35717395   4.63690302
H   -4.20715304  -2.54200402   3.58842487
H   -4.33712208  -0.79552458   3.23656303
O    2.36749281   0.84300155  -3.23613994
H    2.46641231  -0.04115796  -2.85286436
C    2.25669146   0.69258470  -4.64242284
H    2.14596849   1.69777739  -5.05813102
H    1.37592121   0.10166771  -4.93879793
H    3.15069262   0.23349892  -5.09273331
O   -2.94110253  -1.95531837   0.14087403
H   -2.66446779  -1.24332907  -0.45491765
C   -3.25961520  -3.08452476  -0.65660726
H   -3.56914136  -3.87695551   0.03022043
H   -2.39849861  -3.45227121  -1.23627794
H   -4.09079536  -2.89246259  -1.35304748
O    2.50743520  -1.63536778  -1.93374326
H    2.24363720  -1.63634290  -1.00163118
C    3.76783415  -2.28003280  -2.02504101
H    4.04997232  -2.27014936  -3.08134852
H    3.73433099  -3.32869723  -1.69044009
H    4.55415731  -1.75892783  -1.45677801
O    1.90289114   0.52201141   2.76151301
H    0.96603760   0.68067554   2.95007179
C    2.55582393   0.28043208   3.99757610
H    3.60986434   0.10370492   3.76681317
H    2.16643167  -0.60884532   4.51751523
H    2.49610165   1.13877555   4.68493123
