60
Energy:   -338.85708871
O   -3.00434502  -1.36228723   1.59989557
H   -2.21148977  -1.59678141   2.10468892
C   -4.13243115  -1.66525869   2.40498174
H   -5.01662558  -1.39508265   1.82129490
H   -4.15296491  -1.08815922   3.34269806
H   -4.20186897  -2.73570881   2.65416494
O   -0.21785728  -0.95978249  -3.57280180
H   -0.14800197   0.00487388  -3.62740581
C   -0.09880546  -1.47515328  -4.88914270
H   -0.17968240  -2.56261097  -4.80926845
H    0.87172954  -1.23812532  -5.35245350
H   -0.89885188  -1.12155685  -5.55822613
O   -0.56080816  -1.78226633   2.91791650
H    0.23262979  -1.92333147   2.38034779
C   -0.38502110  -0.57098986   3.63516261
H   -1.28762884  -0.42743245   4.23530904
H   -0.27233737   0.30231921   2.97379207
H    0.47788680  -0.60289996   4.31864563
O    0.22098083   1.80671385  -3.53042936
H    0.95988388   1.86885704  -2.90706448
C   -0.56269437   2.98056792  -3.38741340
H   -1.39036516   2.89407985  -4.09661441
H   -0.00228577   3.89780521  -3.62698654
H   -0.98834870   3.08725298  -2.37735695
O    2.22313987   1.69155676  -1.56736502
H    2.30342904   1.96336198  -0.64102877
C    2.63530963   0.33699510  -1.65575373
H    2.53860390   0.04705417  -2.70554774
H    2.00627407  -0.33892865  -1.05557153
H    3.68518210   0.19158699  -1.35675272
O    2.15527889   2.32657728   1.18131635
H    1.33032065   2.60058627   1.60885143
C    2.69932327   1.25862108   1.94027553
H    3.62789265   0.96227768   1.44487196
H    2.03569995   0.38046082   1.97514628
H    2.94223205   1.55184845   2.97361496
O    1.56863841  -2.11138991   1.10412710
H    1.12884256  -2.27354203   0.25635970
C    2.58734916  -3.08722801   1.25413440
H    3.07246056  -2.88996835   2.21394727
H    3.35363214  -3.02670565   0.46551233
H    2.19192976  -4.11481254   1.27628980
O   -0.40876075   2.90286253   2.20371488
H   -1.00943246   2.32229034   1.71325315
C   -0.77167331   4.24292296   1.91205362
H   -0.08522551   4.88338044   2.47248991
H   -1.79859795   4.48386593   2.22851785
H   -0.67103830   4.48768829   0.84306350
O    0.17220134  -2.51487486  -1.27977430
H    0.04479346  -2.04255998  -2.11590177
C   -1.08747747  -3.03116087  -0.88078578
H   -0.92577326  -3.56000805   0.06243085
H   -1.50280640  -3.74742005  -1.60690698
H   -1.83460705  -2.24130443  -0.70556732
O   -1.92718620   1.09587930   0.68026012
H   -2.43849512   0.30484225   0.90663778
C   -0.93353749   0.71252474  -0.25688198
H   -0.36694796   1.61523451  -0.50096512
H   -1.36065096   0.31462195  -1.19070464
H   -0.23102022  -0.03217940   0.14890438
