60
Energy:   -337.10150495
O    3.02998024   0.58521638  -2.97027582
H    3.45835244  -0.10982253  -2.44889166
C    3.16907688   0.24331698  -4.34005343
H    2.68116294   1.03654530  -4.91295308
H    2.67953744  -0.71040740  -4.59212144
H    4.22142506   0.18895901  -4.66003133
O    0.51150774   1.73048148  -2.51063084
H    1.38968368   1.36564996  -2.69536918
C    0.53097268   3.10253412  -2.87066755
H   -0.46564830   3.49778218  -2.65616626
H    0.73688431   3.25836895  -3.94122499
H    1.26183296   3.68476776  -2.28789438
O    3.96169350  -1.54672672  -1.40069518
H    3.14226809  -1.91516137  -1.03845054
C    4.92006833  -1.51848899  -0.35510726
H    5.83671920  -1.10085691  -0.78033641
H    5.15154533  -2.52130092   0.03676512
H    4.61208737  -0.87896191   0.48687265
O   -1.88288551   0.85153717  -1.31788355
H   -1.07826289   1.16698605  -1.75548808
C   -1.87292370   1.34788321   0.01105405
H   -2.78596358   0.98322525   0.48945551
H   -1.88105943   2.44827433   0.05407180
H   -1.01290740   0.98367425   0.59457880
O   -2.96242542   0.64164588   3.34093141
H   -2.98065384  -0.23193550   2.92266524
C   -4.29835514   1.11401131   3.40946209
H   -4.25948500   2.09872316   3.88308314
H   -4.94740509   0.46691621   4.02001874
H   -4.75955457   1.23086009   2.41627591
O   -2.81339278  -1.76572650   1.91667970
H   -3.02469645  -1.82705156   0.97327455
C   -1.44749996  -2.11455192   2.07539772
H   -1.22635681  -2.04022482   3.14360013
H   -0.76939000  -1.43313220   1.53817208
H   -1.23158004  -3.14518522   1.75298352
O    1.45694514  -2.08948817  -0.24309202
H    1.43396501  -1.33579477   0.36505389
C    0.49599396  -1.85203012  -1.25932048
H    0.53514995  -2.71038437  -1.93547135
H    0.71241789  -0.94536195  -1.84574255
H   -0.52939442  -1.77441320  -0.86519915
O    1.52339318   0.18337251   1.41055197
H    0.97435743   0.58530528   2.10006851
C    2.07341939   1.23368799   0.63155111
H    2.68885272   0.76336534  -0.14015066
H    2.71769010   1.90639775   1.21904933
H    1.30265796   1.84030961   0.13083725
O   -3.24378161  -1.56368338  -0.86580863
H   -2.84060133  -0.71125207  -1.08768650
C   -3.69717819  -2.15287008  -2.07404054
H   -4.14844325  -3.11199509  -1.80585354
H   -2.87929857  -2.34741592  -2.78537884
H   -4.46259095  -1.54567130  -2.58220418
O   -0.22975817   1.28090542   3.30599332
H   -1.19136214   1.17646848   3.35922860
C    0.30105922   1.04566897   4.60037753
H    1.38484343   1.16736319   4.52235514
H    0.09731658   0.02661660   4.96479289
H   -0.07000558   1.76307470   5.34898775
