60
Energy:   -337.14521353
O   -2.67930286   2.18823187   1.52451639
H   -1.73908293   2.13036256   1.29854981
C   -2.80796604   3.10474170   2.59968581
H   -3.87296379   3.15792049   2.84142331
H   -2.46636070   4.11835053   2.33761659
H   -2.26872402   2.77901898   3.50295768
O    0.00703941   1.84225263   0.82566612
H    0.92475675   2.11632272   0.97093740
C    0.00747009   0.86403511  -0.20176956
H   -1.03375440   0.56640059  -0.35260213
H    0.58395082  -0.03490980   0.06720136
H    0.39367879   1.25140621  -1.15757487
O    1.89543772  -1.91585487   2.06932966
H    0.93306897  -2.02503651   2.05064707
C    2.17990248  -0.72762082   2.79024117
H    3.26790847  -0.61992389   2.80162276
H    1.83003638  -0.76919408   3.83362159
H    1.75294809   0.16996497   2.31608187
O   -2.45876096  -1.93767410  -0.62547463
H   -3.03200733  -1.16088192  -0.54543839
C   -3.29090900  -3.08643097  -0.64599427
H   -2.62918867  -3.95211922  -0.73652197
H   -3.98313965  -3.09483049  -1.50245414
H   -3.87946221  -3.20173016   0.27763366
O    1.74818600  -0.23482122  -3.10527928
H    1.10798713  -0.90459996  -2.82249822
C    1.74690250  -0.20991515  -4.52369805
H    2.47327323   0.54965958  -4.82522248
H    0.76753984   0.06869366  -4.94322546
H    2.05389087  -1.17052572  -4.96614896
O   -0.92530973  -2.10774952   1.77016064
H   -1.43473480  -2.09595560   0.94628549
C   -1.52029649  -1.17440955   2.65751685
H   -0.93421511  -1.20049802   3.58018320
H   -2.56198947  -1.42973394   2.90744191
H   -1.49875905  -0.14440255   2.26841653
O   -0.05655260  -2.14440531  -2.11045733
H   -0.90961890  -2.10850177  -1.65284167
C    0.80627641  -2.97322367  -1.34814504
H    1.76239623  -3.00267457  -1.87772292
H    0.43400573  -4.00572951  -1.25801431
H    0.98872853  -2.58001474  -0.33578379
O    3.49034860   0.74140498  -1.11659506
H    2.95336845   0.47114378  -1.87622291
C    3.98760237  -0.43570388  -0.50040743
H    4.59007622  -0.11304612   0.35305753
H    4.63258968  -1.02615984  -1.16983290
H    3.18566366  -1.09006556  -0.12426593
O    2.76859643   2.41387532   1.01693874
H    3.10705938   1.84313262   0.31116337
C    3.30443440   3.71182094   0.81507583
H    2.91312758   4.34169952   1.61857888
H    2.99732746   4.15397307  -0.14563440
H    4.40411200   3.73128678   0.87082154
O   -3.91979665   0.40148796  -0.24884301
H   -3.63461529   1.03988666   0.42163589
C   -4.07771006   1.10315116  -1.47165366
H   -4.39911956   0.36928720  -2.21571335
H   -3.13935069   1.55877968  -1.82472826
H   -4.84599970   1.89005174  -1.41424428
