60
Energy:   -339.49939294
O   -2.66220976  -2.11011012  -0.38154041
H   -2.61173719  -1.52424397  -1.15136937
C   -4.03455412  -2.33204711  -0.09878838
H   -4.07313459  -2.99373420   0.77079022
H   -4.56498334  -2.82635285  -0.92769369
H   -4.57207502  -1.40465920   0.15379881
O   -2.27107971  -0.40745643  -2.56253170
H   -1.48748713   0.14474603  -2.70209667
C   -2.58649094  -1.02745408  -3.79891855
H   -3.47124073  -1.64552762  -3.62373833
H   -1.77976414  -1.68194797  -4.16444140
H   -2.82914155  -0.30029871  -4.58957846
O   -0.62463999  -0.53241464   3.27540359
H    0.15610003  -1.09690523   3.17431612
C   -1.76875013  -1.37061832   3.24441400
H   -2.63898076  -0.71874962   3.35952719
H   -1.78077093  -2.10427920   4.06561711
H   -1.87249297  -1.91350581   2.29189738
O    0.09176847   1.05453810  -2.88159055
H    1.02497218   0.83029162  -2.75018417
C   -0.07538921   2.42041735  -2.53667611
H   -1.13190242   2.65624527  -2.69046242
H    0.52081070   3.09516236  -3.17074406
H    0.17046009   2.62611903  -1.48310016
O    2.75228224   0.50081689  -2.12344629
H    2.73969314   0.92055724  -1.25047274
C    4.04256992   0.70023322  -2.67835584
H    4.03928595   0.22129150  -3.66125423
H    4.84049963   0.23824165  -2.07615213
H    4.28529508   1.76524873  -2.81836937
O    2.44670224   1.78497891   0.33728248
H    1.85504209   2.52479537   0.53984890
C    2.19325809   0.75943074   1.28414614
H    2.86799120  -0.06598328   1.04142794
H    1.16006011   0.38142027   1.23528555
H    2.39902562   1.07560100   2.31878299
O    1.46711979  -2.28544595   2.52005040
H    1.04059092  -2.49239504   1.67526139
C    2.59509711  -3.13556007   2.65236423
H    3.06366849  -2.88918665   3.60903878
H    3.34061973  -2.97978728   1.85693466
H    2.32359471  -4.20268368   2.66999902
O    0.45543919   3.69186306   0.97208905
H   -0.26332910   3.09943205   1.23821107
C    0.70182795   4.58086593   2.04981826
H    1.51396949   5.24091926   1.73320978
H    1.02243997   4.06022418   2.96574262
H   -0.17125898   5.20637455   2.29320172
O    0.06745997  -2.65446494   0.13373697
H   -0.88663906  -2.56795699  -0.00991080
C    0.72527570  -1.97238728  -0.92200083
H    1.79881592  -2.07982346  -0.74464791
H    0.48913533  -0.89700378  -0.94577891
H    0.49820571  -2.39996260  -1.91113980
O   -1.37435861   1.71912036   1.74047164
H   -1.16713717   0.97945593   2.33070810
C   -1.88949672   1.17666280   0.53510602
H   -2.11759128   2.02325269  -0.11815015
H   -2.81770805   0.60433951   0.68888219
H   -1.16473312   0.53030049   0.01576911
