60
Energy:   -336.53051902
O   -0.17641691  -2.60566580  -2.64210966
H   -0.30480099  -1.75451912  -3.08650827
C   -1.09007041  -3.53014574  -3.21053548
H   -0.93196976  -4.48324823  -2.69859308
H   -0.92029190  -3.68858113  -4.28703481
H   -2.14071129  -3.23425879  -3.06430963
O   -0.63658627  -0.08978774  -3.77324425
H   -1.18901834   0.61913411  -3.41175859
C    0.53243989   0.50731887  -4.31118042
H    1.14329894  -0.30513533  -4.71398881
H    1.12753006   1.03732088  -3.55108642
H    0.31287228   1.20840031  -5.13157800
O   -1.59452045   0.67906271   0.15199513
H   -1.64261634   0.81921893   1.10931759
C   -1.84334812  -0.69560503  -0.09479860
H   -1.78539198  -0.83590664  -1.17759209
H   -2.84418599  -1.01293753   0.23746785
H   -1.09617724  -1.35407616   0.37523202
O    1.09663958   1.14086842  -0.66621391
H    0.19119542   0.86817176  -0.45590303
C    1.88669704  -0.03288954  -0.76934118
H    2.90323423   0.29248579  -1.00655046
H    1.54705537  -0.70484865  -1.57301514
H    1.92215870  -0.60556507   0.17063889
O   -2.05181036   1.90371329  -2.36484943
H   -1.99961888   1.56213674  -1.45984955
C   -1.40252347   3.16485099  -2.38703065
H   -1.47057861   3.53522466  -3.41351837
H   -0.33671067   3.09920891  -2.11775100
H   -1.88329527   3.90235624  -1.72542517
O    1.28320802   0.63407675   3.43043243
H    1.32888003  -0.26885254   3.08250134
C    2.38579378   1.35465994   2.90355647
H    2.31896381   2.36928970   3.30548359
H    2.36453218   1.42075987   1.80448592
H    3.35549654   0.93027332   3.20744768
O    1.01386577  -1.96579261   2.36827051
H    0.96536931  -2.44495028   1.52774728
C   -0.05082244  -2.42331012   3.18659228
H    0.01869610  -1.87344100   4.12908701
H    0.01868419  -3.49882284   3.41290744
H   -1.04077880  -2.22393443   2.74725975
O    1.07549147   3.84547996   0.19894946
H    1.19765031   2.93717672  -0.11487488
C    0.02695638   3.83338915   1.15443978
H   -0.09736614   4.86409139   1.49748788
H    0.25733898   3.20739298   2.03069886
H   -0.93172999   3.49704417   0.72950469
O    0.82254147  -3.27199057  -0.11428193
H    0.46417393  -3.09044481  -0.99577902
C    1.96484290  -4.09759716  -0.27569744
H    2.35588515  -4.29233372   0.72662428
H    2.75981359  -3.61332289  -0.86415081
H    1.72706723  -5.06582162  -0.74343824
O   -1.42568637   1.09672652   2.91240461
H   -0.49964277   0.98996371   3.17597289
C   -2.09178334   1.79375007   3.95308072
H   -3.13337984   1.90539047   3.63987413
H   -1.67718447   2.79948157   4.12451364
H   -2.07935519   1.24536617   4.90801421
