60
Energy:   -337.78942150
O   -3.23035077   1.27386137   0.38299280
H   -2.60565323   2.00628352   0.27466891
C   -4.28439694   1.72699049   1.21737548
H   -4.97881198   0.88983371   1.32891690
H   -4.83761539   2.57369608   0.78169634
H   -3.93701086   2.01841611   2.22095475
O    0.49839535   0.16835435   3.11120233
H    0.61223583  -0.70386991   2.70538407
C   -0.64155574   0.77223243   2.52096801
H   -0.75519583   1.75361399   2.98943505
H   -1.56568947   0.20016659   2.69843585
H   -0.52911355   0.92288940   1.43587052
O   -1.21415888   3.20314452  -0.00580198
H   -0.53391730   2.66759894  -0.44041171
C   -1.41030841   4.36895690  -0.78998349
H   -2.17942253   4.96070071  -0.28620981
H   -1.76578108   4.14227907  -1.80734954
H   -0.50172734   4.98623993  -0.86884683
O    1.08645895  -2.18277917   1.66233081
H    0.99763039  -2.50986705   0.75483630
C    2.45866912  -2.25757310   2.01443715
H    2.54076913  -1.88544925   3.03926329
H    3.09732725  -1.63158974   1.37175686
H    2.84763063  -3.28763641   1.99308621
O    0.62450846   1.48923807  -1.23952822
H    1.51915938   1.13471902  -1.12844601
C   -0.22504831   0.41011591  -1.59489061
H   -1.22852967   0.82703636  -1.71608340
H   -0.27060390  -0.36893298  -0.81785467
H    0.06477257  -0.06397573  -2.54568939
O    0.83103231  -3.02850138  -1.01470694
H    0.07136412  -2.95814699  -1.61168079
C    1.98826491  -2.65371368  -1.74469370
H    2.83440932  -2.73863870  -1.05744369
H    1.94497917  -1.61433745  -2.10608090
H    2.18012856  -3.31320303  -2.60553019
O   -2.98401488  -1.40467190  -0.46412383
H   -3.14861015  -0.49403042  -0.17765609
C   -2.47643340  -2.12129471   0.65003350
H   -2.29659852  -3.14472844   0.30984531
H   -3.18748760  -2.16074685   1.49004706
H   -1.52340472  -1.71223402   1.02041578
O    3.18381107   0.46537301  -0.58131328
H    3.10238302   0.78056648   0.33107141
C    4.55129923   0.55633648  -0.94769495
H    4.62506710   0.19748756  -1.97787501
H    5.20243340  -0.07190275  -0.31990748
H    4.93168829   1.58938957  -0.91798277
O   -1.50170543  -2.59677709  -2.53235767
H   -2.08604311  -2.18316831  -1.87974712
C   -2.30965061  -3.37225789  -3.40321237
H   -1.63567587  -3.83096969  -4.13179094
H   -3.04548279  -2.76537087  -3.95368169
H   -2.84646491  -4.17880817  -2.87968168
O    2.71426660   1.50198675   1.97774176
H    1.99830002   1.09375745   2.48682324
C    2.36259557   2.85753076   1.75111056
H    3.17970093   3.30224160   1.17660530
H    2.25116888   3.42985070   2.68535427
H    1.43601363   2.96428786   1.16559696
