60
Energy:   -338.27783833
O    1.45733594  -2.02923221  -1.77568211
H    0.55329295  -2.36868219  -1.69884937
C    1.41220724  -0.86335447  -2.58266803
H    2.43852571  -0.49409660  -2.65885341
H    0.79403723  -0.06524529  -2.14259429
H    1.04551945  -1.06517510  -3.60128761
O   -3.06523860   0.27072079   2.28754228
H   -2.27250690   0.80584909   2.44128699
C   -4.18254685   1.14485734   2.29397268
H   -5.06674785   0.52581312   2.11945031
H   -4.13387773   1.90305288   1.49675992
H   -4.31251415   1.66176881   3.25765747
O    3.31234102   1.62880748  -0.31491865
H    3.44517795   0.67838042  -0.18275957
C    3.53419684   2.27164788   0.93009942
H    3.38046289   3.34122587   0.76320423
H    4.55947829   2.12865680   1.30577060
H    2.82941408   1.94304785   1.70989466
O   -0.63372616   1.65873707   2.46282171
H    0.06291577   1.00172178   2.31638329
C   -0.20328948   2.87926330   1.88181073
H   -0.99954197   3.60807862   2.05586646
H   -0.04452412   2.80014430   0.79492937
H    0.72002220   3.26629994   2.34058683
O   -1.25242015  -2.78564890  -1.44444265
H   -1.85863233  -2.54794599  -0.72720671
C   -1.89172547  -2.46974100  -2.67082950
H   -1.19522851  -2.74373372  -3.46788983
H   -2.11727365  -1.39627043  -2.76863684
H   -2.82402346  -3.03593021  -2.82257786
O    3.31441716  -1.16520784   0.11282154
H    2.74558795  -1.53702637  -0.57754618
C    4.25150009  -2.16403292   0.48262932
H    4.88412080  -1.72857816   1.26086797
H    4.90004983  -2.46910999  -0.35348583
H    3.77183647  -3.06465349   0.89685480
O    1.05486846   2.65117967  -1.63416158
H    1.85482783   2.34836304  -1.17941949
C    1.45751235   3.28181675  -2.83944518
H    0.54441693   3.61679866  -3.33897403
H    1.98803200   2.59806991  -3.52048592
H    2.09471054   4.16310318  -2.66598042
O   -2.92871532  -2.02268470   0.68169027
H   -3.04772171  -1.23854230   1.23791096
C   -3.40333481  -3.14343831   1.41051224
H   -3.26185128  -4.01784720   0.76951558
H   -4.47454573  -3.06909605   1.65496617
H   -2.84456696  -3.31089971   2.34459601
O    1.21785836  -0.39918069   1.89164420
H    1.99421118  -0.61735652   1.35489577
C    0.31269007  -1.48781368   1.80174226
H   -0.55581615  -1.22545526   2.41194732
H    0.73525401  -2.42576620   2.19475894
H   -0.03507974  -1.66779738   0.77245156
O   -1.44868739   1.41401515  -2.14892101
H   -0.62801697   1.90332916  -1.98924904
C   -1.88993555   0.89576969  -0.90423009
H   -2.81503964   0.34766243  -1.10233625
H   -2.11169441   1.68545144  -0.16938107
H   -1.16799854   0.19591046  -0.45502931
