60
Energy:   -336.63500061
O    2.58186380   1.66745398  -1.48325314
H    2.21356506   1.60073463  -0.58976121
C    3.07112398   2.98862408  -1.64958961
H    3.48232506   3.04633447  -2.66105804
H    3.87540186   3.23680211  -0.93943322
H    2.28024872   3.74956234  -1.55866866
O    1.36095339   1.37253500   1.00688459
H    1.48748761   0.86100998   1.81975267
C   -0.01024551   1.28669443   0.65336124
H   -0.13513916   1.86822635  -0.26408488
H   -0.67480709   1.71316166   1.42099457
H   -0.33293863   0.25372013   0.44937453
O    1.17254832  -2.37331332  -0.86743287
H    1.87190248  -2.00591746  -1.42809972
C    1.64438572  -2.36476056   0.47041245
H    0.84449233  -2.78171495   1.08831600
H    1.86523544  -1.35004436   0.83695545
H    2.54227162  -2.98723218   0.60864168
O   -1.35310262  -0.57793684   3.48595617
H   -2.04613775   0.03511816   3.19909531
C   -1.64078552  -1.84732886   2.92167237
H   -0.85056879  -2.52560265   3.25482008
H   -1.63731776  -1.83384584   1.82049867
H   -2.60595252  -2.25473886   3.26115301
O    0.20393187   1.57926764  -3.08757877
H    1.04552895   1.65791710  -2.61434321
C   -0.01496477   0.20251340  -3.35057268
H   -0.96683902   0.13202420  -3.88391299
H   -0.09337629  -0.39879894  -2.43130535
H    0.76717697  -0.23817932  -3.98839833
O   -1.59490522  -1.97050914  -0.85007998
H   -0.64216518  -2.14571489  -0.84652604
C   -2.24491179  -3.13510385  -1.33355118
H   -3.31701646  -2.92046397  -1.33100095
H   -2.07142861  -4.01516199  -0.69466261
H   -1.95023147  -3.38996515  -2.36359320
O   -3.26326748   1.10654696   2.27908250
H   -3.36762937   0.83686923   1.35452543
C   -3.74367066   2.43619711   2.39645824
H   -3.61872366   2.72406343   3.44383898
H   -4.81147318   2.52650438   2.14264787
H   -3.17767856   3.14910586   1.77662650
O    3.09016184  -0.95792331  -2.37614509
H    3.01958547  -0.03268420  -2.09798174
C    3.92573414  -1.00040770  -3.52180986
H    3.99443198  -2.04958190  -3.82180869
H    4.94489863  -0.63602452  -3.31857118
H    3.51502426  -0.42926529  -4.36909440
O    1.41909878  -0.23861413   3.33246757
H    0.47595817  -0.41635929   3.46405678
C    1.91764523   0.34508658   4.52548001
H    2.98092076   0.53880463   4.35993943
H    1.82376494  -0.32192491   5.39672021
H    1.42972156   1.30245448   4.76663250
O   -3.25682727   0.24319423  -0.38331470
H   -2.71314611  -0.53240916  -0.58647337
C   -3.18148043   1.12419153  -1.49268406
H   -3.79935302   1.99217655  -1.24708140
H   -3.57459888   0.67637462  -2.41880243
H   -2.15670616   1.47825827  -1.68569126
