60
Energy:   -336.91883985
O   -3.68610731  -1.96311605  -0.18195113
H   -3.18627223  -1.75461950  -0.98514311
C   -4.90434889  -1.23796426  -0.23270663
H   -5.45486267  -1.48439202   0.67926548
H   -5.52982692  -1.51720069  -1.09501839
H   -4.74974493  -0.14781861  -0.25409394
O   -1.99804915  -1.40854671  -2.33818183
H   -1.27824592  -0.80476168  -2.57429669
C   -1.60002323  -2.71869942  -2.70913872
H   -2.42211267  -3.38590079  -2.43619827
H   -0.69631518  -3.05519087  -2.17729043
H   -1.42383864  -2.81914735  -3.79156494
O   -1.51085259  -2.95599132   1.30888302
H   -2.31605514  -2.70539969   0.83214833
C   -1.75528609  -2.77036905   2.69392107
H   -0.83839592  -3.05721115   3.21595481
H   -2.57437182  -3.40332036   3.06975153
H   -1.98019630  -1.72303314   2.94942103
O    0.17725753   0.26800381  -2.88567816
H    1.14188352   0.26592711  -2.79670814
C   -0.25434723   1.61916997  -2.86116070
H   -1.34291092   1.60313006  -2.96243761
H    0.15718533   2.21219287  -3.69287106
H   -0.00687048   2.12754860  -1.91612961
O    2.93582309   0.43713410  -2.34986775
H    2.94753816   1.08260302  -1.62761025
C    4.04738644   0.70915234  -3.18829889
H    4.01896092  -0.02688372  -3.99633857
H    5.01059295   0.60438090  -2.66481680
H    4.00434568   1.71294980  -3.63920407
O    2.68955946   2.31012677  -0.27504846
H    1.92423587   2.89320582  -0.16225700
C    2.72515132   1.42707366   0.83467412
H    3.59298330   0.77754983   0.69159497
H    1.82915122   0.79015353   0.90020187
H    2.84768708   1.95417980   1.79379947
O    0.69114942  -0.24346014   3.16952991
H    0.94016395  -0.89952810   2.50170519
C    1.52717295  -0.43997958   4.29867939
H    1.23326501   0.30705396   5.04100291
H    2.59393625  -0.29163023   4.06892765
H    1.40436254  -1.43680491   4.75038084
O    0.26008092   3.68035608   0.22825380
H   -0.22744262   2.99215049   0.70482189
C    0.10344497   4.89407585   0.94580747
H    0.65870931   5.65837155   0.39533603
H    0.51520391   4.84121351   1.96582585
H   -0.94747544   5.21658977   1.01159794
O    1.14929591  -2.07964329   1.10428589
H    0.27342859  -2.49348282   1.10835475
C    1.60356338  -2.04673890  -0.23925129
H    2.59111520  -1.57765515  -0.22557549
H    0.95070842  -1.44891638  -0.89435888
H    1.70899322  -3.05164725  -0.67722515
O   -0.88057908   1.53024595   1.61507045
H   -0.41788164   0.97379297   2.25903818
C   -1.44475854   0.67495398   0.63389210
H   -1.96204193   1.31793607  -0.08337851
H   -2.18062198  -0.02793093   1.05488511
H   -0.68450036   0.09576189   0.08678940
