60
Energy:   -336.85155561
O    0.58176755  -0.76706344  -2.54420700
H    0.98187231  -1.58583861  -2.21565462
C    1.63176206   0.15038592  -2.80561089
H    1.16351779   1.06685625  -3.17481902
H    2.32995007  -0.21087196  -3.57684599
H    2.21072638   0.40239538  -1.90335323
O   -1.65093809   0.85956076  -3.11604310
H   -0.93935215   0.21846283  -2.97091493
C   -2.87749253   0.21959899  -2.80212130
H   -3.66814023   0.95568536  -2.97105405
H   -2.93138034  -0.10410941  -1.75089044
H   -3.07922204  -0.65165688  -3.44476875
O    1.57281116   2.61365510  -0.32207789
H    0.86835348   2.86353337  -0.93829497
C    2.60851007   3.57601929  -0.43919623
H    3.39366874   3.27941123   0.26154247
H    2.27759402   4.59162117  -0.17119489
H    3.04663500   3.60846611  -1.44903339
O   -0.99865754  -1.75709544   2.71154760
H   -0.41392540  -1.21173198   3.25843908
C   -1.99267127  -2.30761515   3.56089943
H   -2.64255993  -2.91887528   2.92884644
H   -2.61331372  -1.53697194   4.04431367
H   -1.57073761  -2.95602154   4.34468414
O   -2.36702917   0.14427069   1.06314649
H   -1.91167178  -0.52022241   1.60121883
C   -1.37957935   0.99555542   0.50386933
H   -1.90966029   1.73788209  -0.09899924
H   -0.67863376   0.45870664  -0.15434491
H   -0.79651757   1.53089855   1.26952201
O   -0.49805081   3.21158210  -2.11775002
H   -0.94829173   2.46534615  -2.54064279
C   -1.44033768   4.26375226  -1.98520878
H   -0.91667664   5.09608723  -1.50721001
H   -2.29724214   3.98968268  -1.35008837
H   -1.82518804   4.61467423  -2.95552899
O    1.67513217  -3.07353114  -1.34044482
H    0.95070227  -3.26205633  -0.72556040
C    2.64061548  -4.10295381  -1.19669252
H    3.44939009  -3.87504239  -1.89628184
H    2.24182793  -5.09813927  -1.44839018
H    3.06831931  -4.14625163  -0.18280295
O    2.02073452   0.65664718   1.64426669
H    1.91578805   1.33123162   0.95699284
C    2.09921347  -0.60508968   1.00053156
H    2.21721457  -1.35327743   1.78905932
H    2.96388509  -0.68379952   0.32309145
H    1.18859129  -0.84953331   0.43150442
O   -0.51233727  -3.29332857   0.39415409
H   -0.67615618  -2.82972157   1.22881282
C   -1.53782460  -2.92187372  -0.51300124
H   -1.33799788  -3.45292771  -1.44763279
H   -1.54418815  -1.84194327  -0.72860983
H   -2.54082259  -3.21226647  -0.16308066
O    0.66522353   0.05713871   4.02512929
H    1.24621435   0.30357545   3.29018584
C    0.01473726   1.23548199   4.47335747
H   -0.63558371   0.93983806   5.30110290
H   -0.61230798   1.69744938   3.69478331
H    0.71973016   1.99435764   4.84734957
