60
Energy:   -337.38139952
O    1.71303687  -2.31117969   0.68469531
H    2.07070686  -2.25443603  -0.21378986
C    0.36909508  -2.75453943   0.58576916
H   -0.01841042  -2.81288301   1.60651434
H    0.28331638  -3.75358153   0.13042947
H   -0.26774458  -2.05811348   0.01813947
O   -0.68680043   3.22293637   0.78187168
H   -0.01819383   2.94978082   0.13629091
C   -0.06474999   4.11188378   1.69585172
H   -0.83180314   4.40969609   2.41586734
H    0.31869585   5.02240474   1.20933532
H    0.76098536   3.64098334   2.25190140
O   -2.66097611   1.64669780   1.98338622
H   -1.99136987   2.23773591   1.60825330
C   -3.86813412   2.38273633   2.09979325
H   -4.61141682   1.70213846   2.52382459
H   -4.24528506   2.73750303   1.12784927
H   -3.77477904   3.24891184   2.77344164
O    3.38795911   1.44866793   1.02832719
H    2.91823084   0.94011485   1.70593503
C    4.27305540   0.56280994   0.36169840
H    4.79394652   1.15186219  -0.39802200
H    3.74757818  -0.26108573  -0.14608793
H    5.02887741   0.12989230   1.03556244
O   -2.17496607  -0.67874019  -1.37853854
H   -2.37898147  -0.92592106  -0.46437082
C   -2.55221994   0.67776431  -1.55205754
H   -2.31561299   0.93974063  -2.58688639
H   -1.99669533   1.36150565  -0.89124931
H   -3.62980546   0.84276326  -1.39597377
O    2.44981241  -2.06026494  -2.03103477
H    1.59530865  -1.94097111  -2.47150677
C    3.05915340  -3.21778998  -2.58000936
H    4.02035535  -3.33737804  -2.07278681
H    3.25239433  -3.12493201  -3.66020039
H    2.46754757  -4.13097472  -2.41008729
O    1.40908603   2.25443704  -0.80997121
H    2.17222304   2.06815050  -0.24310041
C    1.14315923   1.08718176  -1.57110971
H    0.28094409   1.31442985  -2.20390395
H    0.88666066   0.21946526  -0.94337260
H    1.98270079   0.80618623  -2.22608210
O   -0.14212952  -1.69404641  -3.02864258
H   -0.88898735  -1.38166582  -2.49662283
C   -0.42867396  -1.40089088  -4.38676110
H    0.42259313  -1.75930121  -4.97188636
H   -0.54153495  -0.32157628  -4.57416366
H   -1.33302195  -1.91319876  -4.75072906
O   -2.64069607  -1.08124145   1.37738675
H   -2.68583505  -0.16181282   1.67910972
C   -3.02861465  -1.90963232   2.46173979
H   -2.97211963  -2.94151401   2.10464919
H   -4.06118600  -1.71941796   2.79399307
H   -2.36021358  -1.81231151   3.33153631
O    1.76656577  -0.24256684   2.60122027
H    1.74406000  -1.04297802   2.05600591
C    0.47256201   0.33789324   2.56724764
H    0.51571430   1.23811635   3.18629646
H   -0.30208674  -0.32540357   2.98286042
H    0.16671954   0.63595897   1.55216413
