60
Energy:   -337.02912272
O   -2.16038364  -1.92940664  -1.55571541
H   -1.69740371  -1.18282623  -1.96399296
C   -3.22740364  -1.40351337  -0.78277405
H   -3.73816138  -2.25772443  -0.33007636
H   -3.96044857  -0.85036265  -1.39059535
H   -2.88036807  -0.74425532   0.02822685
O   -0.40250613  -3.41327023   0.06044671
H   -1.04702397  -3.00329074  -0.53531905
C   -1.11164146  -3.91582358   1.18165186
H   -0.37073313  -4.37413357   1.84232728
H   -1.84847822  -4.68714208   0.90794276
H   -1.62985339  -3.12505772   1.74638461
O    2.19765615  -2.44235509   0.47538117
H    1.33355703  -2.83910469   0.29005511
C    2.67560891  -2.99943158   1.68936664
H    3.64948636  -2.54170506   1.88310447
H    2.81667104  -4.09002330   1.63030299
H    2.01880725  -2.77987790   2.54562892
O    2.45536859   2.59782387  -0.54809355
H    2.84209575   1.74753404  -0.29143701
C    2.05033461   3.26205871   0.63819196
H    1.61707839   4.21773227   0.33084477
H    2.89195929   3.47131678   1.31690860
H    1.28342437   2.70368968   1.19752196
O   -0.50768548   0.17347754  -2.49956599
H   -0.30364162   1.12045700  -2.50395540
C    0.72306120  -0.53195821  -2.48704499
H    0.47480168  -1.59677241  -2.48223534
H    1.32668085  -0.31810573  -1.59111655
H    1.33863156  -0.32896022  -3.37734959
O   -1.50748989   2.74986480  -0.13931057
H   -0.93369924   2.92130462  -0.90075391
C   -2.80800500   2.47331117  -0.63399464
H   -3.44130672   2.28256520   0.23665460
H   -2.83679133   1.58123246  -1.27908708
H   -3.23973916   3.31928718  -1.19140610
O    0.31833714   2.89584948  -2.29642547
H    1.12301755   2.87151828  -1.75761130
C    0.60701478   3.64241094  -3.46768333
H   -0.30988537   3.65985209  -4.06306147
H    1.40173560   3.18560655  -4.07803232
H    0.89187923   4.68346308  -3.24895970
O   -1.12656207   0.75494146   1.82438581
H   -1.24037727   1.49100105   1.20496215
C   -0.12818532  -0.10267598   1.29498051
H   -0.01264638  -0.92611393   2.00497058
H    0.84797212   0.39591202   1.18866027
H   -0.40825704  -0.52988453   0.31936274
O    3.42828453   0.04200905   0.08086277
H    3.03297436  -0.82730019   0.24351145
C    4.65079724  -0.16333303  -0.60894234
H    5.08266158   0.82575872  -0.78408769
H    4.51099951  -0.65261032  -1.58559052
H    5.37456456  -0.75334698  -0.02514294
O   -3.03826287  -1.09790664   2.76174237
H   -2.36208542  -0.46960027   2.46773825
C   -3.55360525  -0.62872947   3.99739150
H   -4.31376252  -1.34797765   4.31413774
H   -4.03314958   0.35883641   3.91062637
H   -2.78591837  -0.57423470   4.78508720
