60
Energy:   -848.71116517
O    1.15959443  -2.75012674   2.51975474
H    0.94722573  -3.03625638   1.63135100
H    0.33471152  -2.40944939   2.86578793
O    1.32786965   2.98022058  -0.94171688
H    1.63915166   2.26532552  -0.38650484
H    1.36882561   3.75488529  -0.38095932
O    2.16512497  -3.74185433  -2.19207516
H    1.49513258  -3.44293928  -2.80688556
H    2.74601064  -4.29110653  -2.71850245
O    0.32769803   2.65823870   2.59393920
H    0.42961723   2.02340715   3.30304655
H   -0.58764495   2.57467460   2.32673867
O    0.70747662   0.52711131   4.22655562
H    1.52159947   0.13308700   3.91321765
H    0.04009010  -0.13950896   4.06393798
O   -2.29715509   0.97387735  -2.76810628
H   -2.65644836   1.25618416  -3.60920262
H   -1.45742095   0.57099242  -2.98892786
O    1.69525791   2.02177728  -3.47814669
H    1.60828285   2.45563181  -2.62936083
H    2.50136215   2.38032547  -3.84945654
O   -2.05779467  -0.35575995   1.12928592
H   -2.18962385   0.57463591   1.31153976
H   -1.28082704  -0.38318892   0.57089465
O   -3.21567142  -1.14973161  -1.23745814
H   -2.97546051  -0.87107906  -0.35378211
H   -2.99813614  -0.40095787  -1.79265913
O   -2.20438271   2.33727949   1.59496279
H   -2.94918879   2.90017712   1.80624937
H   -1.97410904   2.57136252   0.69584599
O    1.81798194   1.04011035   0.97341001
H    1.31346683   1.60770806   1.55610134
H    2.31831180   0.47539131   1.56247222
O    0.13622410  -0.53151742  -0.44803238
H    0.36878545  -1.45015633  -0.31294124
H    0.79406740  -0.04226217   0.04603577
O    0.49169085  -3.19604863  -0.11635081
H   -0.33313036  -3.38624028  -0.56326126
H    1.16864954  -3.45259517  -0.74256376
O    0.08124957  -2.86437174  -3.66881874
H    0.12575060  -1.90852673  -3.64408344
H   -0.63755933  -3.08654736  -3.07705561
O    0.10626529  -0.16610242  -3.14241082
H    0.71234769   0.54397881  -3.35378870
H    0.19997524  -0.28836754  -2.19768783
O    2.83024940  -0.67738729   2.88540730
H    2.31043159  -1.46793493   2.74030139
H    3.67585275  -1.00002264   3.19700520
O    1.30309000   4.78649967   1.12719301
H    0.97176162   4.13040282   1.74037346
H    1.66364046   5.47581212   1.68494166
O   -1.09461480  -1.43143596   3.42173155
H   -1.82884689  -1.82111773   3.89637163
H   -1.48643402  -1.07453687   2.62465403
O   -1.44690380   2.83525968  -0.91300782
H   -0.49851040   2.89909347  -1.02573338
H   -1.72946352   2.22763558  -1.59651701
O   -1.78758435  -3.39931680  -1.68229504
H   -2.31003579  -2.60849827  -1.54856996
H   -2.43281288  -4.09974389  -1.77880353
