60
Energy:   -847.92898710
O   -4.09084936  -0.20378646  -1.58742372
H   -3.81530397  -0.44925116  -0.70421725
H   -3.75662361   0.68547439  -1.70464205
O   -1.02097876  -1.57191993  -1.28825814
H   -1.65441782  -1.93113017  -1.90951075
H   -1.54277738  -1.34189590  -0.51946233
O    1.40945384  -2.45934235  -4.33817397
H    0.60184298  -1.98282628  -4.53034313
H    1.74946921  -2.71138265  -5.19671755
O   -2.00297562   1.32753388   3.61248069
H   -1.26020283   1.78488622   4.00662442
H   -2.09640353   1.72363305   2.74610403
O    1.02327921  -0.86547858   2.32382388
H    1.44977140  -0.42006860   3.05590735
H    0.16639124  -1.12152346   2.66502160
O   -2.67291629   2.18975889  -1.77357472
H   -2.83714865   2.93503814  -2.35134494
H   -1.89273765   1.77131095  -2.13751765
O   -2.61203757  -0.69578219   0.74018917
H   -2.42848192   0.24008035   0.82204557
H   -2.36077240  -1.06458988   1.58699408
O    2.37503475   0.73976170   4.10526680
H    3.14321237   0.54538368   4.64225114
H    2.71887319   1.24479319   3.36841527
O   -0.87160076  -1.03001202  -4.70979551
H   -1.65796665  -1.43755536  -4.34679555
H   -0.71582872  -0.26888238  -4.15064564
O   -1.94086970   1.92911192   0.88201028
H   -0.99409528   1.82362747   0.78861284
H   -2.23987436   2.19345655   0.01198156
O    0.28909159   2.47892074   4.55938460
H    0.66889825   3.32379254   4.31819922
H    1.01858339   1.86206103   4.49973848
O    1.65056434  -2.05036425  -1.64868536
H    0.71624197  -2.03766726  -1.44105022
H    1.68753402  -2.29324865  -2.57381901
O    4.33923009   0.55745507   0.00161660
H    3.97777686  -0.28237832   0.28492436
H    5.24437596   0.36016284  -0.23925386
O   -2.96534671  -2.06963273  -3.18480611
H   -3.60554515  -2.75605096  -3.37244357
H   -3.46186143  -1.40079375  -2.71325611
O   -1.55502412  -1.28544538   3.22595357
H   -1.93333811  -1.78683822   3.94825239
H   -1.73866783  -0.37210029   3.44574342
O    2.04301596   0.63991822  -1.56898790
H    2.91394150   0.77086960  -1.19405818
H    1.96346780  -0.30908185  -1.66543895
O    3.04384251   2.10644235   1.89591949
H    3.64370957   1.68074225   1.28340763
H    2.18436099   2.03150546   1.48130181
O    3.09399139  -1.73116191   0.69073963
H    2.65901930  -2.03757057  -0.10496438
H    2.38045919  -1.57521193   1.30943442
O    0.70221657   1.31238241   0.71316635
H    0.76219695   0.51174357   1.23433009
H    1.12052681   1.08934109  -0.11839901
O   -0.52961125   0.75257708  -2.62332505
H    0.39240855   0.93528822  -2.44241630
H   -0.71880686  -0.04281505  -2.12554174
