60
Energy:   -850.97454945
O    1.47955220  -2.44747884   2.57394712
H    1.12116450  -2.71066335   1.72628916
H    1.47632746  -3.25009505   3.09551081
O    2.73922647   0.50507630  -0.26148483
H    2.62673459   1.45564205  -0.26000681
H    3.05781529   0.29974992   0.61747712
O    1.63590260  -3.25619386  -2.36633510
H    1.95224267  -2.36475189  -2.51293667
H    2.24819675  -3.81069305  -2.84992414
O    0.65353790   3.31127011   1.88754401
H    0.95562038   2.70313957   2.56219597
H   -0.29915736   3.21854839   1.89004882
O    1.54022880   1.38681161   3.59413340
H    2.22301525   0.86444358   3.17322231
H    0.86652838   0.75123970   3.83581076
O   -3.08348906   0.73228191  -2.14462829
H   -3.55381027   0.76456471  -2.97768750
H   -2.17204995   0.57265300  -2.38963688
O    2.25564943  -0.66972652  -2.71499783
H    2.59485344  -0.24554791  -1.92680687
H    1.41393600  -0.24259164  -2.87407688
O   -1.80577020   0.17913538   1.77949893
H   -1.95930092   1.12145112   1.84806419
H   -1.07746598   0.09883531   1.16357952
O   -3.36921012  -1.08725125  -0.08491724
H   -2.95552706  -0.64162145   0.65434743
H   -3.38728613  -0.43075297  -0.78127571
O   -2.06945492   2.90739501   1.73554169
H   -2.67899449   3.50785478   2.16465873
H   -2.22902433   3.03147993   0.79992832
O    2.02005275   3.13338669  -0.40336970
H    1.52779061   3.23435458   0.41131755
H    2.51917259   3.94611832  -0.48447782
O    0.16652393  -0.30210167  -0.02949313
H    0.25480010  -1.25437976   0.01057685
H    1.06687139   0.02282201  -0.02393489
O    0.42554280  -3.00722484   0.10172718
H   -0.47728579  -3.23409012  -0.12112821
H    0.92401541  -3.19778236  -0.69290779
O   -0.90573161  -2.42658381  -3.11920675
H   -1.44109251  -2.79187904  -2.41480633
H   -0.04752035  -2.83475180  -3.00473326
O   -0.42821363   0.18200620  -2.60489171
H   -0.63278303  -0.69361413  -2.93302619
H   -0.26576392   0.05606209  -1.67002272
O    3.26433068  -0.35130392   2.30526669
H    4.05375610  -0.56807892   2.80129891
H    2.69631370  -1.11421799   2.41274073
O   -0.05785422   2.99247492  -2.22128859
H   -0.05745169   2.08612277  -2.52911561
H    0.69437984   3.04604759  -1.63179242
O   -0.23770916  -0.66455691   3.86290066
H   -0.89532946  -0.40008398   3.21961110
H    0.28851526  -1.32410726   3.41089066
O   -2.45206523   3.12294396  -0.91420710
H   -1.62390482   3.24816415  -1.37756667
H   -2.83135932   2.33756407  -1.30860063
O   -2.14316233  -3.35399161  -0.81551582
H   -2.61342232  -2.56958585  -0.53303573
H   -2.78821059  -4.05794976  -0.74778473
