60
Energy:   -849.42159159
O    2.13189310  -2.53858428   2.11041518
H    1.64428565  -2.88043519   1.36100956
H    1.45869901  -2.19869454   2.69992050
O    2.64206720   0.64452694  -0.61986515
H    3.18874126   0.30265060   0.08759502
H    2.70948627   1.59574669  -0.53699474
O    1.32314367  -2.68775519  -2.73725214
H    0.42264984  -2.67488451  -3.06156226
H    1.67350863  -1.82728644  -2.96762089
O    0.50113403   2.66476068   1.40458428
H    0.98235076   2.08479504   1.99475556
H   -0.35748304   2.76636340   1.81529764
O    1.86841621   0.94071537   2.98179707
H    2.62818777   0.51983486   2.57950534
H    1.35531780   0.21689901   3.34103480
O   -3.34638528   0.71707428  -1.69525605
H   -3.92472815   0.60351330  -2.44948100
H   -2.46384332   0.61900622  -2.05265525
O    1.95148806  -0.01186179  -3.17278279
H    2.31387517   0.21198480  -2.31557795
H    2.60249020   0.30523471  -3.79878428
O   -1.62011508  -0.08673698   2.09914667
H   -1.83881195   0.83752309   2.21808719
H   -0.95693409  -0.08953278   1.40891844
O   -3.34302550  -1.22563535   0.28469394
H   -2.85517500  -0.82944535   1.00668232
H   -3.44914731  -0.51739448  -0.35041619
O   -2.13601322   2.61986458   2.21407304
H   -2.63183439   3.20422411   2.78758603
H   -2.45798992   2.81686933   1.33444131
O    2.48767064   3.34418870  -0.47245320
H    1.78479556   3.50190757  -1.10278900
H    2.05612359   3.37670913   0.38132746
O    0.20002018  -0.37705826   0.10416011
H    0.36331127  -1.31894396   0.05497487
H    1.06480393   0.02179110   0.00772303
O    0.59485326  -3.03418891  -0.14186817
H   -0.31586367  -3.29737828  -0.27437433
H    0.97494551  -3.03431837  -1.02036786
O   -1.33331959  -2.21889317  -3.17783310
H   -1.19438938  -1.30863669  -2.91636918
H   -1.67249906  -2.64551443  -2.39095101
O   -0.65374006   0.34673609  -2.31267507
H    0.15531785   0.30076847  -2.82212981
H   -0.40674598   0.03639037  -1.44151991
O    3.79905415  -0.48562067   1.60446348
H    3.27996545  -1.27564233   1.75494450
H    4.67944117  -0.71692059   1.90052241
O   -0.21651691   2.90725869  -1.26695132
H   -0.32300842   2.04715602  -1.67329453
H    0.03807576   2.71632476  -0.36420072
O    0.27147749  -1.20833915   3.70062443
H   -0.09060332  -1.46081968   4.54996707
H   -0.47718551  -0.86465084   3.21316786
O   -2.80285553   3.07551956  -0.35128722
H   -1.95188412   3.22606664  -0.76288784
H   -3.15825996   2.31250112  -0.80705294
O   -2.07699236  -3.34843673  -0.76759106
H   -2.56586379  -2.63576176  -0.35609262
H   -2.65866230  -4.10603065  -0.70479455
