60
Energy:   -857.20185371
O    1.60154154  -2.72559185   2.27589320
H    1.20600668  -2.96889595   1.43888237
H    2.01417249  -3.53041786   2.58929811
O    3.36832668   1.03766978  -0.75825686
H    2.92675031   1.87844243  -0.63849246
H    3.25998023   0.58816046   0.07985666
O    1.70440007  -2.95159376  -2.67023099
H    1.99029286  -2.03975132  -2.72537205
H    2.32888648  -3.43217660  -3.21363573
O    0.68643235   2.98727563   2.06575895
H    1.01214815   2.38815195   2.73746713
H   -0.26506954   2.88752642   2.09619081
O    1.63613106   1.09113252   3.82830739
H    1.97636145   1.23666532   4.71108445
H    1.01520992   0.36928298   3.92639928
O   -3.11264009   0.71640646  -1.88868642
H   -3.57673928   0.78288131  -2.72320717
H   -2.18985210   0.64363217  -2.13240363
O    2.23572807  -0.32868622  -2.82172417
H    2.73274928   0.14728368  -2.15640137
H    1.38327109   0.10624455  -2.84132443
O   -1.74375061  -0.17105539   1.90590948
H   -1.91982692   0.76142941   2.03121340
H   -1.04366850  -0.19756513   1.25367170
O   -3.32222921  -1.31298097  -0.03255240
H   -3.36504132  -0.58989708  -0.65829089
H   -2.90539944  -0.93562521   0.74210070
O   -2.03462827   2.55364099   2.06674869
H   -2.64304401   3.08492214   2.58036573
H   -2.24349696   2.76232004   1.15622204
O    1.91101824   3.33400983  -0.31646940
H    1.48659714   3.22200659   0.53415028
H    2.34029409   4.18768282  -0.25993166
O    0.23376483  -0.39506250   0.07158483
H    0.30110123  -1.34054577  -0.06167824
H    1.04549500  -0.15746130   0.51977189
O    0.49148280  -3.09538131  -0.20288683
H   -0.40150447  -3.33219756  -0.45333373
H    0.99092129  -3.14678695  -1.01784113
O   -0.87666376  -2.10726858  -3.25309206
H   -1.38869691  -2.60197051  -2.61330780
H   -0.00412845  -2.49919050  -3.21688187
O   -0.43657858   0.42062469  -2.42358024
H   -0.61429073  -0.42737007  -2.83046490
H   -0.18763252   0.20778671  -1.52415949
O    2.53807221  -0.20506284   1.56997413
H    2.36125000   0.31481480   2.35399772
H    2.39165945  -1.11036221   1.84425173
O   -0.27621662   3.20378239  -1.97263405
H   -0.24496223   2.30837413  -2.30953025
H    0.51511120   3.28780651  -1.44068286
O    0.00274023  -1.04230067   3.83373059
H   -0.72158770  -0.80189088   3.25599012
H    0.47534704  -1.72350257   3.35535980
O   -2.57252501   3.04223350  -0.51174048
H   -1.78876202   3.26807134  -1.01268428
H   -2.92747327   2.27208600  -0.95571843
O   -2.07583771  -3.42048075  -1.12527658
H   -2.55673699  -2.70166952  -0.71505938
H   -2.70163602  -4.14434023  -1.15049101
