60
Energy:   -852.28077243
O    1.73917200  -2.50500754   2.34586922
H    1.23697331  -2.76650019   1.57408562
H    1.85591057  -3.31519507   2.84205479
O    2.42098371   0.52161521  -0.66013799
H    2.39842888   1.47718738  -0.60909909
H    2.87947182   0.24957893   0.13485683
O    0.64839806  -3.16035340  -2.59873911
H    1.05838196  -2.31450235  -2.77951811
H    1.01315811  -3.74980999  -3.25883220
O    0.84126781   3.34451055   1.81737545
H    1.22189419   2.69956470   2.41353000
H   -0.10396946   3.21624563   1.89678868
O    1.97798919   1.34434362   3.27123245
H    2.57551493   0.81198855   2.74607255
H    1.37690924   0.71227623   3.66547293
O   -2.13883849   0.00378881  -1.73081115
H   -2.23374849  -0.85098311  -2.15103598
H   -1.37086757  -0.08983477  -1.16717372
O    1.74485781  -0.75037720  -3.02408577
H    2.13371314  -0.31418594  -2.26595612
H    1.07627291  -0.14013680  -3.33526537
O   -1.57045970   0.14745924   2.15683103
H   -1.72946898   1.09117889   2.17530057
H   -0.96604747   0.02019388   1.42558467
O   -3.39258256  -1.09373511   0.52470725
H   -2.89568368  -0.65149640   1.21300099
H   -3.17446427  -0.61430640  -0.27454514
O   -1.88008787   2.84996185   1.82962997
H   -2.55010422   3.43979993   2.17517446
H   -2.04465342   2.82579579   0.88699216
O    2.12413025   3.25232958  -0.52107164
H    1.66001300   3.31436692   0.31378068
H    2.88057088   3.82985251  -0.41861830
O   -0.06509199  -0.38196207  -0.03724230
H    0.07264708  -1.32877553  -0.00888623
H    0.79156434  -0.02158085  -0.26636487
O    0.24525274  -3.08005292   0.12079087
H   -0.67235933  -3.34721467   0.17412499
H    0.48443648  -3.22449747  -0.79471924
O   -2.06601167  -2.58151970  -2.53762410
H   -2.29693723  -3.05014074  -1.73556453
H   -1.14888769  -2.80783665  -2.69220771
O   -0.28427094   0.99204657  -3.54479050
H   -0.14619222   1.87135329  -3.19267430
H   -1.03987942   0.65633115  -3.06252208
O    3.43672803  -0.42246660   1.71635948
H    4.31422331  -0.66502655   2.01199194
H    2.89226949  -1.17882242   1.93481457
O    0.01746818   3.42784888  -2.26865936
H    0.11777616   4.25305818  -2.74321155
H    0.77442777   3.39381094  -1.68377866
O    0.31768762  -0.71025639   3.94893937
H   -0.44209394  -0.43723805   3.43471682
H    0.74349636  -1.37837839   3.41178785
O   -2.22658743   2.67675485  -0.84138071
H   -1.48707155   3.01472880  -1.34647646
H   -2.40724672   1.81870481  -1.22523510
O   -2.46462178  -3.56244157   0.03078058
H   -2.84926671  -2.72094031   0.27604728
H   -3.11071839  -4.21173738   0.30864018
