60
Energy:   -848.49074234
O    1.87119464  -2.03787913   2.48652985
H    1.25490056  -2.51483913   1.93072178
H    1.31697195  -1.51047465   3.06178073
O    2.35376089   0.21917419  -0.88141601
H    2.34503914   1.16595288  -1.02200723
H    2.85546836   0.10093692  -0.07485454
O    0.33449043  -3.56624520  -2.04723376
H    0.80493302  -2.81975744  -2.41827505
H    0.64874970  -4.32012138  -2.54637669
O    1.15238487   3.44909297   1.23597031
H    1.49070901   2.89230257   1.93722140
H    0.20242904   3.43064120   1.35205350
O    2.29208939   1.73384079   3.07639285
H    2.90716838   2.04918942   3.73855969
H    2.80089214   1.11642565   2.55089294
O   -2.26650208  -0.18885005  -1.60762351
H   -2.41566429  -1.09995247  -1.86035830
H   -1.49589337  -0.22014620  -1.04068910
O    1.62611613  -1.34358691  -2.99909981
H    1.95691617  -0.82030265  -2.26904724
H    2.24181990  -1.17629865  -3.71265103
O   -1.56342184   0.60878740   2.15804995
H   -0.99742167   0.31224824   1.44535073
H   -1.64053862   1.55368946   2.02597064
O   -3.50395248  -0.81362247   0.83695256
H   -2.96676355  -0.27935325   1.42194512
H   -3.30633231  -0.48286646  -0.03927719
O   -1.59470104   3.25034701   1.43450403
H   -2.18701059   3.95277022   1.70283756
H   -1.84185591   3.06065263   0.52942814
O    2.12852050   2.92186952  -1.20538727
H    1.77219674   3.15387778  -0.34781081
H    2.66731323   3.67338227  -1.45269848
O   -0.14185341  -0.37431184   0.06028927
H   -0.04124419  -1.29805097   0.29010585
H    0.72537834  -0.10689625  -0.24406223
O    0.03753558  -3.01549241   0.64255652
H   -0.88215562  -3.23078992   0.79762727
H    0.21271676  -3.33450484  -0.24275387
O   -2.35140747  -2.87244378  -1.96717404
H   -2.58208724  -3.18148468  -1.09109618
H   -1.45247296  -3.17373897  -2.09896859
O   -0.41190899   0.44446348  -3.57064499
H   -1.15804251   0.19618239  -3.02486745
H    0.24237590  -0.23451883  -3.40594480
O    3.55787837  -0.18181247   1.55826862
H    4.44403969  -0.53192214   1.64977366
H    2.98879855  -0.88332763   1.87490167
O   -0.13805770   3.04459203  -2.77243875
H   -0.19189158   2.18456535  -3.18919752
H    0.66462460   3.00932997  -2.25216040
O    0.44518134  -0.16229653   3.85984300
H    1.04132567   0.56870557   3.69711710
H   -0.36509980   0.08507938   3.41433041
O   -2.23078585   2.60419798  -1.09652571
H   -1.55462457   2.87461878  -1.71774256
H   -2.46511722   1.71675138  -1.36811214
O   -2.69644297  -3.37387502   0.74147157
H   -3.03543546  -2.48584129   0.85421916
H   -3.30463078  -3.92697355   1.23179948
