60
Energy:   -849.31498142
O    2.04198160  -2.48470028   2.24491727
H    1.54286684  -2.84083117   1.50987503
H    1.38484430  -2.06567562   2.80063370
O    2.64830042   0.54863461  -0.84568204
H    2.53161470   1.49451346  -0.75663433
H    3.08120310   0.28280349  -0.03441086
O    1.23722873  -3.04148528  -2.58287409
H    0.33814445  -3.01322308  -2.91010574
H    1.62876115  -2.22226375  -2.88587622
O    0.97434634   3.07975791   1.89654908
H    1.32506900   2.44021389   2.51639495
H    0.02468036   3.01730574   1.99885308
O    1.99999280   1.12285023   3.56249420
H    2.46898232   1.22587426   4.39054416
H    1.40167169   0.39141393   3.71495613
O   -3.27472188   0.56949807  -1.78410813
H   -3.88813149   0.51599059  -2.51697746
H   -2.41241548   0.45739853  -2.18422463
O    1.99728580  -0.46397399  -3.29568807
H    2.35261168  -0.12762972  -2.47298041
H    2.68616206  -0.29960138  -3.93963139
O   -1.49051694   0.03948360   2.00826102
H   -1.63980340   0.98104014   2.09438120
H   -0.87039480  -0.03987132   1.28342782
O   -3.36935409  -1.14804073   0.38447128
H   -2.82033362  -0.71543126   1.03842649
H   -3.43052144  -0.51715453  -0.33279646
O   -1.76237955   2.76089736   2.05451284
H   -2.32478587   3.35740062   2.54859264
H   -2.04654774   2.86046218   1.14590559
O    1.94923680   3.17315392  -0.60623380
H    1.60755914   3.17797036   0.28789428
H    2.45342356   3.98390631  -0.67484964
O    0.21454255  -0.38447816  -0.04632988
H    0.33441160  -1.33320046  -0.00403021
H    1.09376631  -0.03804701  -0.19858919
O    0.47680054  -3.06573996   0.02549015
H   -0.44069569  -3.31128130  -0.09342984
H    0.87056407  -3.18281403  -0.83907667
O   -1.39176700  -2.49600925  -3.08800095
H   -1.22341563  -1.56648926  -2.93346212
H   -1.75365325  -2.81504890  -2.26127011
O   -0.60834741   0.12921199  -2.54278326
H    0.19856472  -0.02427409  -3.03427759
H   -0.37328584  -0.05226793  -1.63281461
O    3.43741221  -0.22122609   1.61441854
H    3.03957202   0.32996441   2.28832065
H    3.10478806  -1.10019513   1.79609533
O   -0.33346916   2.89877885  -2.13295289
H   -0.34094184   1.97180056  -2.37146339
H    0.48453013   3.01567962  -1.64979327
O    0.25818210  -0.99419109   3.79123953
H   -0.22047891  -1.47025759   4.46982348
H   -0.42259139  -0.65812029   3.20828523
O   -2.51956228   2.91640209  -0.51471626
H   -1.77122230   3.08236232  -1.08801926
H   -2.95702413   2.15933291  -0.90420982
O   -2.19766095  -3.35910151  -0.58630922
H   -2.65685484  -2.61053431  -0.20549436
H   -2.80523365  -4.09144608  -0.48258505
