60
Energy:   -856.19526278
O    1.64373439  -2.43200070   2.47945222
H    1.20036883  -2.79187665   1.71124122
H    0.94879466  -2.00271032   2.97845160
O    2.68783866   0.38924294  -0.41987846
H    2.64965329   1.34507801  -0.38592200
H    3.08534360   0.13520489   0.41299988
O    1.43799170  -3.26215104  -2.41392722
H    1.75810341  -3.97933472  -2.96110901
H    0.57418740  -3.05523125  -2.77065988
O    0.86794906   3.23947335   1.93537192
H    1.14824437   2.55331196   2.54105248
H   -0.08800134   3.19134012   1.94396638
O    1.66017080   1.11671881   3.45019847
H    2.36191815   0.62908964   3.01892095
H    1.00723300   0.45262283   3.67128804
O   -3.07501030   0.83738251  -2.14525537
H   -3.58086396   0.91309069  -2.95433644
H   -2.17935541   0.66766279  -2.43719610
O    2.16137387  -0.63787151  -2.95045635
H    2.52522252  -0.28863021  -2.13689840
H    2.07610912  -1.57786523  -2.79116549
O   -1.78281151   0.24266392   1.85564995
H   -1.87264048   1.19330436   1.92232348
H   -1.08022068   0.11207463   1.21882626
O   -3.41909154  -0.92018888  -0.03013424
H   -2.97790321  -0.48586939   0.69990089
H   -3.40780725  -0.27389643  -0.73611624
O   -1.88026713   2.97801593   1.83487952
H   -2.41221089   3.64994383   2.26123687
H   -2.06298584   3.08389265   0.90126513
O    2.19619302   3.07445352  -0.38437776
H    1.72975618   3.17475229   0.44544673
H    2.74482380   3.85629383  -0.44732091
O    0.11922231  -0.35501758   0.02680696
H    0.19863950  -1.30720438   0.08394752
H    1.02159054  -0.04241325  -0.03832338
O    0.33094340  -3.05355768   0.11164548
H   -0.57882816  -3.25238802  -0.10974570
H    0.81838996  -3.23347205  -0.69225658
O   -1.02390927  -2.45793684  -3.11877475
H   -0.91792107  -1.51304094  -3.00845663
H   -1.56756108  -2.72653749  -2.37814782
O   -0.38529960   0.19500652  -2.55337883
H    0.47671375  -0.00591342  -2.91779070
H   -0.29413657   0.02799997  -1.61527971
O    3.45226267  -0.47898514   2.07354115
H    2.87069775  -1.22853921   2.20075275
H    4.28362689  -0.75166913   2.46175349
O    0.03842698   2.94175445  -2.10072903
H    0.01156593   2.02401204  -2.37139341
H    0.82336141   3.00873168  -1.55701602
O   -0.24367960  -0.87053412   3.78770284
H   -0.76501317  -1.02785920   4.57490801
H   -0.86279811  -0.49690775   3.16054459
O   -2.34235493   3.14759728  -0.80270038
H   -1.50807578   3.24653256  -1.26141811
H   -2.76451209   2.40255345  -1.23039756
O   -2.27499987  -3.22794593  -0.78029123
H   -2.71668125  -2.43257627  -0.48274038
H   -2.93762218  -3.91420674  -0.70149010
