60
Energy:   -847.31235768
O    1.60385768  -2.45225109   2.43488934
H    1.11137212  -2.82447217   1.70335583
H    0.94091726  -2.02692310   2.97879921
O    2.84912008   0.23149907  -0.42951668
H    2.75052516   1.18351276  -0.41606924
H    3.19086546   0.01334927   0.43757767
O    1.66117910  -3.47243778  -2.13262404
H    1.41765772  -3.91419225  -2.94612400
H    2.08013542  -2.66006445  -2.41680183
O    0.85947898   3.17814817   1.75929491
H    1.12196967   2.51856571   2.40138639
H   -0.09578893   3.12248354   1.73487124
O    1.67354902   1.13475593   3.37964206
H    2.38185447   0.62288014   2.98910601
H    1.04254097   0.48086696   3.68045744
O   -3.86986304   0.65973893  -1.50083743
H   -3.41568481   0.10717943  -2.13694433
H   -3.32015547   1.43964632  -1.42469343
O    2.69259274  -1.01929551  -2.85296962
H    2.85455049  -0.60041132  -2.00766639
H    3.44354439  -0.77053438  -3.39187719
O   -1.59317208   0.21261892   1.85471707
H   -1.75360247   1.15502472   1.80608317
H   -0.94826537   0.04320939   1.16796559
O   -3.61348304  -1.09836609   0.55468770
H   -2.97763348  -0.64199015   1.10573052
H   -3.84507126  -0.46211124  -0.12190562
O   -1.89143476   2.90980136   1.49967195
H   -2.54441569   3.47809305   1.90819649
H   -2.07926905   2.96337207   0.56261256
O    2.23706185   2.89464017  -0.51253781
H    1.74959935   3.02121520   0.30145907
H    2.77780627   3.68034857  -0.59309609
O    0.21878524  -0.40922682  -0.06368557
H    0.22258783  -1.36344466   0.01171798
H    1.14433219  -0.16514541  -0.06804066
O    0.18375248  -3.09446425   0.12387090
H   -0.71665531  -3.17624030  -0.19047024
H    0.72361169  -3.33358203  -0.62952579
O   -2.39368967  -1.10424251  -2.98064886
H   -1.50717514  -0.74706610  -3.03307818
H   -2.33101990  -1.80816708  -2.33505258
O    0.11252981   0.00426529  -2.72469287
H    0.96458511  -0.35244222  -2.97567766
H    0.06035666  -0.14105082  -1.78002730
O    3.47647386  -0.54646169   2.11812540
H    2.86604195  -1.27751666   2.21385075
H    4.27090590  -0.83692110   2.56616882
O    0.08917091   2.69933937  -2.25030118
H    0.12434065   1.78992762  -2.54689048
H    0.85404513   2.79652376  -1.68306712
O   -0.16961886  -0.87926659   3.86864297
H   -0.75105008  -1.09307206   4.59833934
H   -0.74745672  -0.50705408   3.20246498
O   -2.36908116   2.97700409  -1.19391761
H   -1.49647823   2.89266861  -1.57821373
H   -2.82129941   3.60232863  -1.76022117
O   -2.35989915  -2.96001662  -0.90934056
H   -2.82117650  -2.33470529  -0.35037651
H   -2.99015231  -3.66658013  -1.04998485
