60
Energy:   -855.90751033
O    1.96702304  -2.37083178   2.26784463
H    1.45729938  -2.72369066   1.53852697
H    1.32130700  -1.93244931   2.82201379
O    2.70299181   0.52428224  -0.77713050
H    2.59424326   1.47509331  -0.75805399
H    3.12289324   0.31397403   0.05694689
O    1.34012267  -3.32295710  -2.54883517
H    1.64242737  -2.44147145  -2.76752850
H    1.96516104  -3.90510337  -2.98088217
O    1.01550094   3.17940497   1.79220774
H    1.35294446   2.55948041   2.43878123
H    0.06435022   3.13357706   1.88938778
O    1.97718027   1.27573613   3.56055912
H    2.41815083   1.41023291   4.39941991
H    1.37126269   0.55235170   3.72121622
O   -3.28195584   0.63529005  -1.76041881
H   -3.85832556   0.65095174  -2.52447674
H   -2.40937384   0.47827166  -2.12122033
O    1.91887669  -0.75613725  -3.08504185
H    2.36629445  -0.31453477  -2.36321331
H    1.06061293  -0.33463042  -3.12916835
O   -1.47434890   0.17395750   1.95910115
H   -1.62315598   1.11719148   2.02541837
H   -0.85682740   0.07882313   1.23394702
O   -3.32752572  -1.10808680   0.37743886
H   -2.78750920  -0.65097063   1.02215493
H   -3.42215370  -0.48397195  -0.34211520
O   -1.72448887   2.89990153   1.95629392
H   -2.27028458   3.52848367   2.42875913
H   -1.99766486   2.98390113   1.04275641
O    1.97087526   3.15388721  -0.72534586
H    1.63428136   3.20468422   0.16928035
H    2.50078444   3.94443474  -0.82763328
O    0.22004670  -0.30973684  -0.09270937
H    0.31404356  -1.26067974  -0.03699554
H    1.11060953   0.01159872  -0.23368154
O    0.42175395  -3.00665620   0.03681257
H   -0.49574188  -3.25414587  -0.07800077
H    0.83473228  -3.22146112  -0.79957227
O   -1.27630910  -2.50109365  -3.00301171
H   -1.71769818  -2.85463788  -2.23073326
H   -0.41225489  -2.91289485  -2.99514098
O   -0.71544178   0.10428313  -2.57850111
H   -0.95966896  -0.77645078  -2.86291756
H   -0.41116313  -0.01001273  -1.67817738
O    3.47285815  -0.14872661   1.72138347
H    3.09542440  -1.01279982   1.88616545
H    3.04975966   0.42393982   2.36112769
O   -0.30886819   2.93407113  -2.27603069
H   -0.32377233   2.02530279  -2.57628031
H    0.51615358   3.01521669  -1.79750553
O    0.22191183  -0.82844746   3.80164133
H   -0.28198552  -1.26568881   4.48803721
H   -0.43863676  -0.49546485   3.19416293
O   -2.46377136   3.01106444  -0.61695107
H   -1.72231050   3.14796084  -1.20663490
H   -2.90596691   2.23600788  -0.96333565
O   -2.24403905  -3.38032585  -0.55795501
H   -2.66692894  -2.59912594  -0.20141232
H   -2.86889670  -4.08692934  -0.39517832
