60
Energy:   -846.11959828
O    1.99747197  -2.64471226   2.12981814
H    1.41324616  -2.94349585   1.43293909
H    1.44042950  -2.11327269   2.69859535
O    2.82544879   0.31644575  -0.75944963
H    2.71331750   1.20728485  -0.42769051
H    3.35897038  -0.12128709  -0.09614236
O    1.06306901  -3.28937206  -2.69591663
H    1.41504945  -2.41750420  -2.87532693
H    1.58974902  -3.87696729  -3.23773934
O    0.30200195   4.69756530   1.17151886
H   -0.39991112   4.17324736   1.55705820
H   -0.06814731   5.02987386   0.35372158
O    2.42679208   0.94362404   2.60765553
H    3.08789024   0.33023033   2.28682968
H    1.78463736   0.39222212   3.05467352
O   -3.32007591   0.79109233  -1.62002532
H   -3.90298167   0.67330297  -2.37007759
H   -2.44409949   0.62538189  -1.96850373
O    1.79841377  -0.73566202  -3.10126716
H    2.31170489  -0.34397277  -2.39462466
H    0.96306777  -0.26886220  -3.07831431
O   -1.31359455   0.36802920   2.03705130
H   -1.43363997   1.31691168   2.07503795
H   -0.71632730   0.23093756   1.30172175
O   -3.25321261  -0.90718793   0.55391127
H   -2.67468019  -0.45696634   1.16940506
H   -3.37998643  -0.28058378  -0.15849836
O   -1.78010899   3.07927210   2.00158004
H   -2.43412771   3.49805883   2.56114151
H   -2.14865694   3.13333273   1.11983081
O    1.82653081   2.55705964   0.50012354
H    1.45412696   3.38965736   0.79051681
H    2.00717510   2.07955425   1.30980748
O    0.28825529  -0.37714482  -0.02886999
H    0.31116646  -1.33362881   0.00020414
H    1.19772624  -0.11978902  -0.18007326
O    0.32056986  -3.08777820  -0.04054747
H   -0.61898121  -3.25905614  -0.10488648
H    0.65927352  -3.27575788  -0.91586189
O   -1.52890405  -2.32935051  -2.96093905
H   -1.94261228  -2.68720510  -2.17543448
H   -0.68727844  -2.78193544  -3.01630208
O   -0.76362587   0.19880678  -2.42351168
H   -1.07285872  -0.64581339  -2.75096192
H   -0.43017391   0.00874169  -1.54663261
O    3.98154213  -0.98628719   1.37984652
H    4.82367515  -1.36445132   1.63289931
H    3.33680579  -1.64919723   1.62702498
O   -0.09302730   2.87216457  -1.52111134
H   -0.15662712   2.07076214  -2.04066987
H    0.60493060   2.69463543  -0.89057980
O    0.53744774  -0.80785570   3.63056256
H    0.23598197  -0.83637420   4.53860272
H   -0.18915268  -0.41269126   3.14876514
O   -2.59145977   3.22283965  -0.53971886
H   -1.72404874   3.21744180  -0.94444199
H   -3.02505136   2.44514924  -0.89104179
O   -2.39276848  -3.23145319  -0.48260957
H   -2.72998769  -2.43156396  -0.07925827
H   -3.04097813  -3.90143767  -0.26540715
