60
Energy:   -851.10748888
O   -3.76322222  -0.61610307   2.35773005
H   -3.33365676  -1.33449753   1.89338669
H   -3.13461138  -0.35560298   3.03094618
O   -0.36712394   1.09067882  -0.19868015
H    0.43554148   1.60487979  -0.28561359
H   -0.84151018   1.50619346   0.52141508
O   -1.57532710   2.24739141   1.96581019
H   -2.42361879   2.18220907   1.52719383
H   -1.65334629   1.67107342   2.72607490
O   -3.86562630   1.44547222   0.64333789
H   -4.76291394   1.77202286   0.57646927
H   -3.92216738   0.71207251   1.25584081
O   -1.71883260  -4.14964115  -1.20838858
H   -2.48549949  -4.65460785  -1.47942798
H   -2.02593190  -3.62553424  -0.46863605
O   -2.32788881  -2.27291354   0.68077282
H   -2.69176555  -1.71764268  -0.00879214
H   -1.41408909  -1.99740515   0.75355361
O    0.37964811  -0.97815581   3.39126289
H    0.41631698  -1.33205888   2.50264606
H    1.10262622  -0.35204516   3.43024939
O    4.13599595  -0.56910412  -1.75736488
H    5.07696029  -0.63868835  -1.91853558
H    3.89299015   0.28326464  -2.11881684
O   -3.30238108  -0.58798028  -1.18025417
H   -2.65743553  -0.33744908  -1.84170047
H   -3.49097868   0.22377712  -0.70939036
O    2.01278792   2.34381447  -0.24466505
H    2.39806992   1.53129806   0.08336957
H    1.80043537   2.84398460   0.54335023
O    1.00536340   3.23581783   2.18068222
H    1.02978887   4.06072948   2.66561110
H    0.07739059   3.00317249   2.14946584
O    0.22272223  -2.37150905  -1.92000746
H   -0.30272109  -1.63993071  -2.24394312
H   -0.40342535  -3.08740378  -1.81199917
O    1.16321404   0.62386921  -4.20841980
H    1.17353339   0.73027427  -5.15963131
H    1.58909536  -0.21983219  -4.05668018
O    2.28437196   0.94330730   3.14266682
H    2.69034224   0.59911402   2.34708467
H    1.89789170   1.77667195   2.87365342
O    2.34285472  -1.69375491  -3.53992913
H    3.02722013  -1.45165396  -2.91601972
H    1.67184064  -2.11994900  -3.00670257
O    3.18794667   1.76617470  -2.69805831
H    2.45279225   1.51911757  -3.25907757
H    2.78080785   2.18310037  -1.93868830
O   -0.99492474  -0.00572428  -2.61102071
H   -0.35700796   0.29343685  -3.25893787
H   -0.78601516   0.49240057  -1.82079272
O    2.81842603  -0.10905495   0.61371919
H    2.07583639  -0.71300795   0.60795404
H    3.35970705  -0.38717983  -0.12512671
O   -1.81381102   0.41763404   4.00677760
H   -1.04170341  -0.12363839   3.84213911
H   -1.90014066   0.42894316   4.96000955
O    0.32829469  -1.38890219   0.59613845
H    0.05324313  -0.50365705   0.35756033
H    0.39035290  -1.85396844  -0.23818403
