60
Energy:   -849.65174934
O    1.94718158  -3.15632985   1.46892516
H    1.45130377  -3.12244927   0.65088534
H    1.98383742  -4.08717390   1.68896507
O    1.91572443   2.48332041  -1.83498705
H    2.28221235   1.87774277  -1.19063143
H    1.32086814   3.03876366  -1.33114120
O    0.96822222  -1.89813837  -3.27768058
H    0.05970796  -2.00696355  -3.55873355
H    1.17570231  -0.98674021  -3.48392618
O    1.14368504   2.24567097   2.24999643
H    1.66090686   1.70813261   2.84980137
H    0.24359758   2.15647297   2.56323456
O    2.50148148   0.31040276   3.58061070
H    3.15752771  -0.12652163   3.03753403
H    1.81347848  -0.34442114   3.69930943
O   -3.38051069   1.44798739  -1.06364150
H   -4.10303512   1.68765161  -1.64394430
H   -2.66657158   1.20979817  -1.65507087
O    1.11938824   0.86651700  -3.84137575
H    1.45352232   1.46142660  -3.17005702
H    1.46279591   1.21560171  -4.66383724
O   -1.47492396  -0.58918040   2.01909675
H   -1.55553657   0.28275050   2.40571021
H   -0.94277439  -0.45565374   1.23473758
O   -3.40147330  -1.06960266   0.13362867
H   -2.85885616  -0.93629487   0.91082075
H   -3.49489962  -0.19611777  -0.24653908
O   -1.51019400   1.99446055   2.92066210
H   -1.97900858   2.34895860   3.67615920
H   -1.86905263   2.46939267   2.17106766
O    2.37562175   0.78179382   0.26444879
H    2.03378992   1.29179922   0.99880385
H    2.96107523   0.14151605   0.66882539
O   -0.03544731  -0.33051796  -0.25551931
H    0.15221152  -1.24552348  -0.46475817
H    0.82486804   0.06477309  -0.11468487
O    0.45720727  -2.92201389  -0.81187893
H   -0.46753922  -3.14328921  -0.92193805
H    0.75356927  -2.68529216  -1.69072148
O   -1.73798056  -1.91800439  -3.58245297
H   -1.70425002  -1.01177321  -3.27612122
H   -2.02359136  -2.41908552  -2.81853149
O   -1.26568691   0.56021019  -2.50233806
H   -0.54586616   0.78801894  -3.09071983
H   -0.83539124   0.25913642  -1.70206807
O    3.82957901  -1.14429089   1.58033322
H    3.23179510  -1.89099972   1.54410936
H    4.69236980  -1.51874261   1.40254179
O    0.38124695   3.80844992   0.07914920
H    0.72196373   3.33404652   0.83749302
H    0.62152678   4.72107423   0.23919396
O    0.62037036  -1.66496634   3.41931647
H   -0.18926239  -1.35759460   3.01157969
H    1.01574877  -2.23998664   2.76413754
O   -2.27241036   3.26631764   0.69196171
H   -1.41929856   3.47985068   0.31402554
H   -2.67537704   2.67508552   0.05612032
O   -2.27679055  -3.15278636  -1.17058771
H   -2.70282987  -2.43114968  -0.70802654
H   -2.89326599  -3.88145173  -1.09822294
