65
Energy:  -1627.87347685
O   -0.98061230   1.02315029  -3.28629751
H   -1.69769770   0.40624849  -3.13983067
H   -0.44359665   0.95879945  -2.49654754
O   -2.08876905   3.19135203  -2.04060701
H   -1.36652397   3.43082422  -1.45987732
H   -1.72112526   2.52158056  -2.61721440
O    4.24116982  -0.99990492  -2.03770033
H    4.17067153  -1.17236028  -1.09880684
H    3.47418529  -1.42762318  -2.41852006
O   -3.23681211   1.30856058  -0.46248491
H   -2.48706970   0.76049765  -0.23065484
H   -2.86238535   2.02038130  -0.98147211
O    0.05258908   3.45421867  -0.38946041
H    0.00295840   3.37211539   0.56291961
H    0.34061035   2.59225872  -0.68996105
O   -3.15306778  -0.51582493  -2.53447877
H   -3.35392030   0.12453601  -1.85196285
H   -2.91140712  -1.30880801  -2.05592907
O   -0.21384919   2.81827990   2.31043514
H    0.20814112   2.02034001   1.99192616
H   -1.15081168   2.62662201   2.27043042
O   -0.00779591  -3.92562064  -0.60577068
H    0.11007334  -4.16938006   0.31233608
H    0.43313951  -3.08002416  -0.68807743
O    0.43574429  -3.04183518   2.07356438
H   -0.52066139  -3.06687654   2.04368210
H    0.68508108  -2.49889229   1.32571678
O   -2.33179400  -2.48229411  -0.72927676
H   -1.58002830  -3.06268797  -0.84853761
H   -1.95586633  -1.66858127  -0.39344696
O   -2.08176158  -0.48543296   2.72883850
H   -1.25194771  -0.50658572   3.20548653
H   -1.82885549  -0.38609806   1.81101339
O    2.97327944   1.42014435  -2.03946226
H    3.43962610   0.58423222  -2.03758047
H    2.09763281   1.20716510  -1.71679421
O   -2.85542092   2.08833413   2.16361606
H   -3.09543998   1.92692361   1.25116368
H   -2.68444704   1.21833003   2.52429964
O    0.30446346   1.82087929   4.86802105
H    0.14909097   2.29308323   4.05002675
H    0.46070878   0.91625536   4.59695870
O   -2.28732356  -3.08295908   1.94484467
H   -2.43531191  -2.95565995   1.00776077
H   -2.35815329  -2.20535877   2.32038787
O    0.52196626  -0.70461212   3.61565101
H    0.61963098  -1.61168343   3.32596999
H    0.74991660  -0.18140551   2.84719455
O    1.80498658  -1.87624396  -2.78714813
H    1.47772372  -1.66295366  -1.91328423
H    1.60382413  -1.10289295  -3.31411466
O    3.61935187  -1.33507747   0.56734692
H    3.66126795  -0.40354038   0.78348007
H    2.69954786  -1.49050732   0.35279161
O    3.41378587   1.38655589   0.77908742
H    3.31858145   1.60187615  -0.14870844
H    2.51995656   1.22442135   1.08077169
O    1.54646877   0.45444772  -4.24561963
H    0.64153347   0.68568648  -4.03620954
H    2.07152073   0.93875082  -3.60843614
S    0.28647540  -0.06022635   0.05570708
O    0.83660757   0.57072795   1.28832676
O    0.94969023  -1.37571753  -0.16729303
O   -1.18087475  -0.26440901   0.21474487
O    0.54047853   0.82849318  -1.11295028
