65
Energy:  -1636.13283713
O   -1.91108219  -1.09517642  -2.55703515
H   -1.72641271  -0.91388793  -1.63548020
H   -1.06248966  -1.01382672  -2.99235663
O   -1.00912895   3.64946654   0.70399499
H   -0.67647666   2.79695333   0.98470042
H   -1.19439369   3.53954292  -0.22864943
O    3.14004590  -1.33840746  -1.30217941
H    3.56206291  -2.02343109  -0.78364675
H    2.42661087  -1.02276072  -0.74755391
O    2.47240968   2.70660318  -1.09283335
H    1.70088392   2.14887561  -1.19243159
H    2.24820969   3.30072174  -0.37660059
O   -1.45731806   2.91930306  -1.90644024
H   -0.76019405   2.28916011  -1.72431439
H   -2.23103783   2.38031926  -2.07101860
O   -3.53084284   1.12830407  -2.25246508
H   -3.72583422   0.95733443  -1.33106419
H   -2.99683567   0.38288266  -2.52708320
O   -3.23770903   2.62502203   1.95053734
H   -2.79914213   2.03287927   2.56148568
H   -2.52473218   3.09631849   1.51952051
O   -2.06095093  -3.78684927  -1.94031676
H   -2.23526488  -2.88520880  -2.21030001
H   -1.11003136  -3.87656625  -2.00304377
O    1.00805724  -3.26480501   0.70349235
H    0.07270006  -3.39992427   0.85541856
H    1.10783368  -2.31425948   0.65115020
O   -1.76116199  -3.03772449   0.69216104
H   -1.99763857  -3.43592530  -0.14554224
H   -1.53816852  -2.13294479   0.47334731
O   -1.88259355   0.71508272   3.32943707
H   -1.19481195   0.85300593   2.67815717
H   -2.30046382  -0.10517538   3.06715298
O    0.64591852  -3.52412931  -2.01128332
H    0.85956991  -3.45687001  -1.08065928
H    0.70528039  -2.62589156  -2.33667073
O   -3.66905077   0.43032599   0.39560054
H   -3.55304068   1.23340317   0.90338056
H   -2.78006007   0.10396517   0.25625925
O    2.06065461   1.99786277   2.66699366
H    1.22341370   1.71979798   2.29559161
H    2.66247566   1.28138117   2.46525771
O   -3.36773329  -1.46055129   2.36412324
H   -3.63843476  -0.83314600   1.69381349
H   -2.85129932  -2.11151534   1.88896684
O    3.48857830  -0.20675620   1.72537129
H    2.61922859  -0.36879444   1.35902918
H    3.95540983   0.26527984   1.03581915
O    3.80714721  -2.87021954   0.92557937
H    3.79118430  -1.99919108   1.32217294
H    2.89748214  -3.16615417   0.95969699
O    4.47856775   0.93145948  -0.55365108
H    4.10139596   0.14437909  -0.94668765
H    3.84143218   1.62128825  -0.73919455
O    1.69183510   4.20596991   1.06705721
H    0.74724889   4.14137529   0.92628692
H    1.89139783   3.50116833   1.68322382
O    0.93596073  -0.84305716  -2.94997807
H    0.69914980  -0.06964748  -2.43812859
H    1.82988001  -1.04784976  -2.67575160
S    0.04485049   0.26977561   0.15124952
O    0.31075411   1.05154071  -1.08900795
O   -1.19529143  -0.53682166  -0.02637045
O    1.19412766  -0.63923904   0.42135018
O   -0.13018837   1.20362242   1.29902630
