65
Energy:  -1627.55991891
O   -1.03300482  -0.51680103  -3.39193171
H   -1.02513384  -1.42936246  -3.10313849
H   -0.72790682  -0.02181803  -2.63157726
O   -1.25335636   3.10559391  -1.12677390
H   -1.27470560   3.22278825  -0.17701522
H   -0.74695663   2.30404646  -1.25835225
O    4.03278371  -0.67314122  -1.30751545
H    3.91814394  -0.52681850  -0.36853770
H    3.43731003  -1.39398200  -1.51253132
O   -3.27815059   1.22611644  -0.63314938
H   -2.69370486   0.53124264  -0.33015525
H   -2.69104192   1.92762486  -0.91496704
O    1.10030168   4.64877338  -0.83136761
H    0.27954792   4.19883180  -1.03173653
H    1.59919652   4.01806691  -0.31219025
O   -3.69988447   0.21176460  -3.18009478
H   -2.79687347  -0.05076849  -3.35864268
H   -3.67617569   0.56292760  -2.28995193
O   -1.35482896   3.23983796   1.57815873
H   -0.72779525   2.51671639   1.56567837
H   -2.18511766   2.83326785   1.82625804
O   -0.66527569  -3.07054822  -2.45341121
H    0.27031543  -2.95947753  -2.28440117
H   -1.05747121  -3.15721219  -1.58455916
O    0.79297335  -3.10369372   1.89266589
H   -0.02510854  -2.95849738   2.36794676
H    0.86846407  -2.34901019   1.30872601
O   -1.49668487  -3.16488280   0.16322038
H   -0.61970996  -3.34246412   0.50323763
H   -1.57552232  -2.21128325   0.18899606
O   -2.25452634  -0.30741221   2.92041116
H   -1.44404679  -0.02881746   3.34672057
H   -2.02670354  -0.37598606   1.99325084
O    2.43681040   1.38668391  -2.13214855
H    2.99509390   0.66402876  -1.84523234
H    1.55591460   1.13364665  -1.85605693
O   -3.68026244   1.86391581   2.01592925
H   -3.68318006   1.64642288   1.08377038
H   -3.26483840   1.11117907   2.43669297
O    0.26666970   0.37724774   3.75581608
H    0.98234333  -0.25751257   3.78931898
H    0.33108286   0.76571697   2.88336296
O   -1.77336087  -2.98006860   2.89035998
H   -1.94908482  -3.14114481   1.96331769
H   -2.00685845  -2.06127710   3.02277186
O    2.33166927  -1.44272590   3.48597510
H    1.87427872  -2.13274833   3.00545998
H    2.78697014  -0.94083510   2.80992880
O    1.92469051  -2.31617490  -1.92679143
H    1.57337896  -1.86140074  -1.16128996
H    1.81777042  -1.69349797  -2.64586959
O    3.28354264  -0.09420041   1.24763277
H    3.15726365   0.84977661   1.15175335
H    2.47042433  -0.47948866   0.92110034
O    2.47517243   2.49770700   0.40456928
H    2.50435233   2.22275673  -0.51182732
H    1.65794530   2.12898165   0.73985019
O    1.63294313  -0.51984290  -3.96003978
H    0.67868614  -0.46426278  -3.90967822
H    1.94301692   0.27100318  -3.51884983
S   -0.03973783   0.08109498   0.13722331
O    0.26421073   1.12378953   1.15727397
O    0.96624526  -1.01399944   0.23138386
O   -1.40102730  -0.47249674   0.38324611
O    0.01161996   0.68708658  -1.22301071
