65
Energy:  -1630.55046089
O   -1.27512867  -0.02274683  -3.61436119
H   -2.13565602  -0.33660200  -3.33647730
H   -0.67604936  -0.33162689  -2.93470765
O   -1.77492776   2.49859978  -2.47464031
H   -1.66751789   1.75443264  -3.06701708
H   -1.10975406   2.36569190  -1.79928018
O    2.89380857  -1.08282510  -1.46012465
H    3.10840268  -0.69736527  -0.61065309
H    1.93847080  -1.04506783  -1.50634139
O   -3.50769623   1.42696713  -0.65861252
H   -2.84063657   0.82790805  -0.32336416
H   -3.04483936   1.96763082  -1.29867356
O    0.97040864   3.54529171   0.85447265
H    0.45945472   3.47011508   1.66039226
H    0.58521381   2.89714080   0.26476325
O   -3.64565312  -0.77298048  -2.39554298
H   -3.33295488  -1.47725389  -1.82769561
H   -3.71738383  -0.01300799  -1.81802384
O   -0.57300077   3.03850787   3.08090800
H   -0.16925550   2.19108053   3.26822729
H   -1.42670102   2.82020801   2.70704586
O   -0.13694113  -3.38516318  -1.71487189
H    0.65749657  -3.69922971  -1.28305851
H   -0.02352677  -2.43603881  -1.76519041
O    1.07563456  -2.61623855   1.90654409
H    0.17445385  -2.92174051   2.01034066
H    0.99051890  -1.74409658   1.52137458
O   -2.48381843  -2.56145531  -0.55374841
H   -1.73004306  -2.95053136  -0.99722824
H   -2.18729038  -1.68799660  -0.29806727
O   -2.07317813  -0.41909739   2.71171360
H   -1.23642865  -0.16878936   3.10341251
H   -1.92862153  -0.34402159   1.76847510
O    2.25682389   1.58626464  -2.30649466
H    2.51534264   0.67273989  -2.18454205
H    1.43656692   1.67049650  -1.82037190
O   -3.01009970   2.12146412   2.08907511
H   -3.20459772   2.03842512   1.15552977
H   -2.81411756   1.22882497   2.37371204
O    0.46685982   0.47741349   3.39932606
H    1.22997857   0.05464834   3.79321849
H    0.56887427   0.32901753   2.45921780
O   -1.64899461  -3.06865958   2.05176799
H   -1.98129061  -3.04327086   1.15445722
H   -1.85798044  -2.20579926   2.40957918
O    2.79908417  -1.08627435   3.50268430
H    2.24853056  -1.75407283   3.09382276
H    3.18347727  -0.60899544   2.76737578
O    2.27566302  -3.61974369  -0.38011766
H    1.90163410  -3.32438222   0.45000030
H    2.59587908  -2.81988684  -0.79715789
O    3.38366785   0.15567158   1.00948546
H    3.53482556   1.05758631   0.72676118
H    2.43109656   0.06171640   1.01297897
O    3.41872838   2.67744134  -0.05163218
H    3.12420972   2.38816900  -0.91523632
H    2.63861746   3.05627403   0.35351543
O    1.01391885   1.17360860  -4.79065549
H    0.20915802   0.74167620  -4.50425322
H    1.47223131   1.38995710  -3.97863649
S   -0.13019749   0.11819893  -0.29450994
O    0.01650572   1.54969672  -0.68102284
O    0.78010327  -0.18420017   0.84566869
O   -1.53941945  -0.14463017   0.11183271
O    0.22202049  -0.74807069  -1.45451833
