65
Energy:  -1639.80950629
O   -1.33910412   0.77461902  -3.28791905
H   -2.01093762   0.17924891  -2.95564501
H   -0.76423339   0.92999691  -2.53851049
O   -2.54468334   3.03945831  -2.29647286
H   -1.79957155   3.43403750  -1.84331998
H   -2.16781641   2.30903031  -2.78706240
O    3.90962060  -1.01301728  -1.79826676
H    3.84810051  -1.05711404  -0.84406416
H    3.15513741  -1.51237166  -2.11072823
O   -3.42800417   1.43087335  -0.28513332
H   -2.62646793   0.96652199  -0.04399160
H   -3.14793331   2.06749259  -0.94278680
O   -0.29989261   3.79310431  -0.97381170
H   -0.34230010   3.85163857  -0.01934473
H    0.00542750   2.90245326  -1.14629990
O   -3.35211520  -0.67858798  -2.06962708
H   -3.02093022  -1.36782180  -1.49386228
H   -3.54577414   0.05214446  -1.48246597
O   -0.41167185   3.51304288   1.74625873
H    0.10730415   2.71586671   1.63946027
H   -1.28942135   3.20040805   1.96545531
O    0.23480436  -3.47899427  -0.31141711
H    0.48612006  -2.57594122  -0.11759385
H    0.56431284  -3.63511643  -1.19644925
O    0.42857661  -3.71779159   2.44746884
H    0.45815403  -3.77322456   1.49233314
H   -0.43951038  -3.36370222   2.64054273
O   -2.25562389  -2.31353333  -0.09815426
H   -1.46480404  -2.82519128  -0.26857123
H   -1.93400314  -1.43525057   0.10534350
O   -1.76978584   0.04473298   3.02066740
H   -0.89843079   0.15464774   3.40131285
H   -1.62228583   0.06031318   2.07502854
O    2.71118812   1.39356820  -2.33054133
H    3.12895075   0.55594848  -2.13029286
H    1.84306483   1.33003550  -1.93234866
O   -2.91030169   2.44420279   2.25735369
H   -3.19798362   2.17041495   1.38642822
H   -2.56819706   1.64561138   2.65915966
O    0.85742083   0.31549880   3.72017305
H    1.39357316  -0.47607833   3.67350207
H    0.92839502   0.70514952   2.84875649
O   -2.09938275  -2.64967722   2.64146618
H   -2.27607817  -2.61353321   1.70141076
H   -2.01743259  -1.73331603   2.90565966
O    2.37352813  -1.94168723   3.29875340
H    1.72115862  -2.57867666   3.00739393
H    2.78687622  -1.63520982   2.49163086
O    1.51591527  -2.07456032  -2.51213652
H    1.27411902  -1.64767470  -1.69022710
H    1.33573733  -1.41845209  -3.18540448
O    3.39525659  -0.98348003   0.89071749
H    3.56265311  -0.04130158   0.91330143
H    2.49560622  -1.05983395   0.57286353
O    3.40472349   1.74214937   0.45791784
H    3.27409189   1.84777840  -0.48442484
H    2.51975794   1.68051370   0.81745765
O    1.16471515   0.02168568  -4.23800376
H    0.26993935   0.28656418  -4.02481958
H    1.71803617   0.61120042  -3.72561712
S    0.20280010   0.36456687   0.05301341
O    0.83765467   1.14489317   1.15217243
O    0.92133079  -0.92968969  -0.11643741
O   -1.22388614   0.09996611   0.39161762
O    0.27610107   1.14309792  -1.21529902
