65
Energy:  -1627.83771501
O   -1.63855005  -0.05369682  -3.51481744
H   -2.45530197  -0.43958731  -3.19821566
H   -1.24185912   0.33967472  -2.73756138
O   -0.92391262   3.93437857   0.83181665
H   -0.75083331   3.03743135   1.11775562
H   -0.14708805   4.18025294   0.32950078
O    3.57536508  -0.11980081  -1.71812307
H    3.58153224  -0.16187647  -0.76186816
H    3.03044602  -0.85926095  -1.98736972
O   -2.14182330   3.04871393  -1.46552509
H   -1.86881112   3.45781433  -0.64434725
H   -1.51488351   2.33793810  -1.59959993
O    1.53023780   3.37423549  -0.45637078
H    1.00418413   2.71374174  -0.00554111
H    1.68589395   3.00477405  -1.32556654
O   -3.90987568  -1.08167473  -2.36744194
H   -3.99944796  -0.30201279  -1.81941282
H   -3.48372946  -1.72524993  -1.80136578
O    1.92494880   2.32776113   4.57251441
H    2.30256683   2.43257187   3.69921539
H    1.22305778   1.68758601   4.45522563
O   -0.13096932  -3.85366860  -1.24484285
H    0.15640275  -3.77014037  -0.33562771
H    0.46507963  -3.28970718  -1.73769680
O    0.51233621  -3.11350637   1.31631671
H   -0.38875957  -3.16468466   1.63512544
H    0.55188441  -2.28374183   0.84075536
O   -2.49473252  -2.60129418  -0.56089076
H   -1.70337321  -3.01206354  -0.90910164
H   -2.19994795  -1.75135082  -0.23388896
O   -2.28621190  -0.72075224   2.95144235
H   -1.51390584  -0.33700050   3.36678532
H   -2.19600689  -0.49806477   2.02488680
O    1.79497759   1.73627139  -2.68031730
H    2.46056883   1.14691062  -2.32552998
H    0.98162002   1.46281349  -2.25616865
O   -3.82270789   1.03423354  -0.64240476
H   -3.38156318   1.80905238  -0.99065606
H   -3.13598925   0.55531994  -0.17841001
O    0.12384669   0.43929834   3.61217661
H    0.73869755  -0.28589340   3.50132897
H    0.04488863   0.82264046   2.73865140
O   -2.09479863  -3.28201919   2.05995766
H   -2.37700382  -3.14502908   1.15562045
H   -2.21307848  -2.43004756   2.47994107
O    1.91021974  -1.58632963   3.11036757
H    1.42565686  -2.23608288   2.60120023
H    2.49496128  -1.17174919   2.47599209
O    1.62195450  -1.96669013  -2.24915234
H    1.26823841  -1.52803582  -1.47539581
H    1.30224663  -1.44710395  -2.98674907
O    3.14968781  -0.32967597   0.98904884
H    3.05246509   0.56603007   1.31229841
H    2.29029503  -0.54965975   0.62948933
O    2.53830904   2.18433592   1.85347292
H    2.65398795   2.81770770   1.14517183
H    1.64656469   1.85598556   1.73853858
O    0.94153597  -0.31615996  -4.32039760
H   -0.00391843  -0.27463347  -4.17678917
H    1.28151661   0.47995020  -3.91192040
S   -0.30350151   0.31977272   0.00733577
O    0.10514383   1.34389467   1.00947509
O    0.69965907  -0.78172221  -0.01452257
O   -1.63797953  -0.23104195   0.37594348
O   -0.38082941   0.94796035  -1.34155292
