65
Energy:  -1631.54903178
O   -0.42375522   0.35963419  -3.25146354
H   -1.36213436   0.18813262  -3.17232032
H   -0.19251513   0.80897501  -2.43853507
O   -1.26457228   3.48118093  -0.49949773
H   -1.32037412   3.42059610   0.45415183
H   -0.65937672   2.78292867  -0.74932559
O    4.89087291   0.10607935  -0.64237657
H    4.42058716  -0.16782832   0.14504818
H    4.20750402   0.42797070  -1.23027517
O   -3.21124514   1.53701570  -0.66234476
H   -2.58824218   0.86473374  -0.38641702
H   -2.68669370   2.33420959  -0.73690698
O    1.73512601   3.59322775  -0.13203843
H    0.96435171   4.14878505  -0.01587078
H    1.38277726   2.75110526  -0.41998272
O   -3.07442385  -0.18931864  -2.83323558
H   -3.24600063   0.46966655  -2.16053076
H   -2.91856503  -0.99699973  -2.34375512
O   -1.38397660   3.01720723   2.16531528
H   -2.22825855   2.57448078   2.25141485
H   -0.74601038   2.30665231   2.09941656
O   -0.08576039  -3.76102769  -1.65322592
H    0.18723051  -3.78455849  -0.73608137
H    0.47435998  -3.09589840  -2.05335095
O    0.52549422  -3.36129454   0.99887748
H   -0.40531864  -3.35137155   1.22185908
H    0.70682415  -2.47497093   0.68617673
O   -2.33636006  -2.28770166  -1.18494706
H   -1.57959625  -2.81182210  -1.44731728
H   -1.96070953  -1.53847850  -0.72258013
O   -2.47821687  -0.82236202   2.45246313
H   -1.73171188  -0.76671314   3.04900765
H   -2.11832644  -0.59309753   1.59563846
O    2.73811724   0.78720815  -2.27031814
H    2.50291795  -0.12446573  -2.44284023
H    2.01321947   1.12688965  -1.74555957
O   -3.73450798   1.60421649   2.05486256
H   -3.69918760   1.59919242   1.09832763
H   -3.38427714   0.75143857   2.31242813
O   -0.10861526  -0.59443996   3.80408772
H    0.06105257   0.04342326   3.11085241
H    0.58469824  -1.24689030   3.70480639
O   -2.19040403  -3.30962197   1.36249994
H   -2.37688705  -3.06253993   0.45673706
H   -2.35910833  -2.51435300   1.86778993
O    1.92607049  -2.34574191   3.15982909
H    1.47203468  -2.81905213   2.46264850
H    2.48761967  -1.72170813   2.69996368
O    1.37047340  -1.59700585  -2.44337471
H    1.33216817  -1.40318128  -1.50678697
H    0.71613954  -1.01854437  -2.83511614
O    3.29036708  -0.53571659   1.52615658
H    3.17846595   0.37639235   1.79405071
H    2.52814645  -0.71984856   0.97720578
O    2.60988220   2.08973189   2.08534578
H    2.57864540   2.72524636   1.37023916
H    1.73927280   1.69194034   2.09109111
O    1.64294913   1.53507122  -4.71864133
H    2.21775110   1.42243380  -3.96157637
H    0.79624457   1.19458113  -4.42986854
S    0.07554461   0.28763982   0.25732158
O    0.24449758   0.91226013   1.59948564
O    0.99991146  -0.87403528   0.13021193
O   -1.33119090  -0.17741298   0.09945730
O    0.38896027   1.28974743  -0.79986856
