65
Energy:  -1632.76661366
O   -2.72089624   1.52122611  -2.59058335
H   -1.98224132   2.11842407  -2.47236597
H   -2.31681353   0.66745139  -2.74555990
O   -0.44308474   2.98396490  -2.01325714
H   -0.64332779   3.40469692  -1.17712369
H   -0.11850249   2.11598145  -1.77350114
O    4.32351885  -0.87190388  -1.27768708
H    4.27233494  -0.37480986  -0.46128670
H    3.71547064  -1.60065402  -1.15345968
O   -3.28899744   1.09575644   0.07209485
H   -2.51632915   0.54661892   0.20499913
H   -3.26114369   1.32866817  -0.85591816
O    2.32342077   3.24819200  -2.12018180
H    1.36794021   3.30308302  -2.13678678
H    2.51802708   2.36013061  -2.41969340
O   -1.24288105  -0.85994806  -2.75965313
H   -0.65234491  -0.31349563  -2.24110837
H   -1.56026224  -1.52107518  -2.14450115
O   -0.87542995   3.87937052   0.53614780
H   -1.66697338   3.75294905   1.05931935
H   -0.32188830   3.12925727   0.75329661
O    0.20649045  -4.23468277  -0.03383371
H    0.14207633  -4.09261629   0.91057075
H    0.98222116  -3.74030579  -0.29853189
O   -0.31887044  -3.70902341   2.61183833
H   -1.24518323  -3.55152494   2.42916185
H    0.02034704  -2.85642986   2.88432246
O   -1.86498927  -2.59440851  -0.66567241
H   -1.14103617  -3.20735743  -0.53754205
H   -1.58923947  -1.79879715  -0.21048404
O   -2.76104970  -0.54182218   2.51324544
H   -3.47410808  -0.02702683   2.13540243
H   -2.09652366  -0.57274392   1.82500069
O    2.55048128   0.56400301  -2.76718683
H    3.23293259   0.12841272  -2.25654688
H    1.78680738   0.57136599  -2.19014279
O   -2.90049159   2.89530389   2.11448257
H   -3.06283836   2.30709313   1.37699801
H   -2.22066500   2.45675864   2.62609348
O   -0.93778050   1.32823587   3.37887930
H   -1.55243100   0.63413168   3.14085411
H   -0.42067354   1.47300291   2.58649382
O   -2.90367419  -3.18562213   1.82370540
H   -2.65814005  -3.07553969   0.90510500
H   -2.94659354  -2.29396527   2.16915849
O    0.69177067  -1.20826585   3.27494843
H    1.05842174  -1.08264295   2.39972404
H    0.31624757  -0.35763382   3.50219149
O    2.24235792  -2.62454046  -0.90495463
H    1.94004906  -1.93944498  -0.30872868
H    1.86379571  -2.38960042  -1.75214155
O    3.81221325   0.44748065   1.03375079
H    3.56799561   1.36700401   0.92855389
H    2.97973661  -0.02482067   1.02167003
O    2.71620824   2.92184541   0.60922367
H    2.62329951   3.10198377  -0.32627084
H    1.88550906   2.51739116   0.85939856
O    1.29038908  -1.80996770  -3.35342343
H    0.36996543  -1.56449159  -3.25964909
H    1.76573212  -0.98031015  -3.30927365
S    0.26958513   0.28151982   0.25117281
O    0.38110724   1.55006972   1.02476442
O    1.35351864  -0.65171281   0.66862341
O   -1.05554465  -0.34644985   0.51534166
O    0.39925929   0.57417223  -1.20403824
