65
Energy:  -1639.03128583
O   -1.03348219   0.75402989  -3.39101724
H   -1.84410254   0.31084039  -3.14059848
H   -0.54608964   0.84361285  -2.57208181
O   -1.23441028   3.11497977  -1.79206076
H   -0.56413188   2.54125898  -1.42084227
H   -1.42669824   2.73582055  -2.64967109
O    4.02107181  -1.00177760  -1.55466775
H    3.95900911  -1.01109373  -0.59952730
H    3.29270755  -1.54928777  -1.84784001
O   -3.09902323   1.62542944  -0.37574367
H   -2.47444526   0.96566650  -0.07433518
H   -2.55967595   2.28467873  -0.81246638
O   -0.99355760   5.18934265   0.06694353
H   -0.81379583   4.63599278   0.82702344
H   -1.06387751   4.57639207  -0.66488879
O   -3.35329518  -0.29307209  -2.34979506
H   -3.11408657  -1.07118231  -1.84625203
H   -3.40886822   0.40639527  -1.69872756
O   -0.61267994   3.34023851   2.08435158
H   -0.07372698   2.58167036   1.85999492
H   -1.47865828   2.97446291   2.26468895
O   -0.30779772  -3.86660825  -1.23931369
H   -0.00158778  -3.84641229  -0.33263875
H    0.34969783  -3.36935858  -1.72580543
O    0.46707364  -3.31168628   1.34479828
H   -0.42744714  -3.21014663   1.66999686
H    0.65401949  -2.48752548   0.89530737
O   -2.44547521  -2.25826774  -0.61932011
H   -1.73367451  -2.81676411  -0.93181557
H   -2.00589377  -1.48695079  -0.26145118
O   -2.01762106  -0.37353519   2.91733384
H   -1.18617558  -0.26333157   3.37862054
H   -1.79410055  -0.27185355   1.99216830
O    2.80786393   1.39627546  -2.06509406
H    3.24330985   0.56685673  -1.86841345
H    1.92001802   1.28795858  -1.72417041
O   -3.07616116   2.13059081   2.36777234
H   -3.19640555   2.02398498   1.42415783
H   -2.76622068   1.27625552   2.66823855
O    0.55859539  -0.04921576   3.78460819
H    1.13551044  -0.80539093   3.67690494
H    0.67455631   0.45752019   2.98086470
O   -2.15275310  -2.97350955   2.03201801
H   -2.40637167  -2.79621862   1.12621594
H   -2.16530788  -2.11591409   2.45699361
O    2.19610889  -2.19263901   3.19228083
H    1.60368705  -2.69610529   2.63389931
H    2.76098475  -1.72162258   2.57967115
O    1.65047772  -2.18543380  -2.23544350
H    1.40969015  -1.75353955  -1.41585791
H    1.52115754  -1.51547980  -2.90676293
O    3.46532541  -0.86442499   1.11186848
H    3.55740248   0.08758671   1.14964935
H    2.58488357  -1.00677250   0.76431820
O    3.25719183   1.84476162   0.74212243
H    3.17279876   1.91207298  -0.20897106
H    2.36012441   1.72807972   1.05499179
O    1.50171081  -0.11337018  -4.03040753
H    0.59120691   0.16916556  -3.94445375
H    1.99750463   0.50973159  -3.49921592
S    0.19916003   0.23797290   0.17069847
O    0.69025767   1.06299590   1.31011067
O    1.00181857  -1.01420934   0.08193524
O   -1.23441787  -0.10534852   0.38768883
O    0.33898175   1.00845355  -1.09694085
