65
Energy:  -1627.68600466
O   -0.90660664  -0.33280234  -3.38827131
H   -0.85184530  -1.22635474  -3.04945404
H   -0.60565744   0.21703131  -2.66484586
O   -0.68635225   3.43017443  -0.63900253
H   -0.77800527   3.37833089   0.31238794
H   -0.43973240   2.54435656  -0.90496719
O    4.14568373  -0.19600581  -1.15478421
H    3.92621309  -0.29207838  -0.22805095
H    3.69557130  -0.92322563  -1.58464696
O   -3.35038715   2.65597825  -0.58934470
H   -3.36050148   1.85841764  -1.11852011
H   -2.46057022   2.99573703  -0.68432712
O    2.06472508   3.79788078  -0.60686724
H    1.10784168   3.81988231  -0.59582453
H    2.28179109   3.11734582  -1.24403783
O   -3.21715914   0.28641356  -1.93668088
H   -2.59845069   0.14614052  -2.65344804
H   -2.75490219  -0.02118069  -1.15697828
O   -1.01943905   3.04039627   2.01465884
H   -0.55425068   2.21688482   1.86748368
H   -1.92836628   2.77941386   2.16288611
O   -0.29021303  -2.78992347  -2.15120397
H    0.57151149  -2.96013045  -2.53158834
H   -0.10342966  -2.36148616  -1.31586853
O    0.49454378  -3.35123110   1.56276871
H   -0.43321512  -3.32792735   1.79718759
H    0.60434062  -2.62795882   0.94547323
O   -2.59632350  -2.92879899  -0.55349525
H   -1.94807979  -3.18936666  -1.20780133
H   -2.36379659  -2.02731229  -0.33104343
O   -2.62518256  -0.54170909   2.51249182
H   -1.83828512  -0.43594547   3.04713032
H   -2.30758237  -0.51422815   1.60993613
O    2.39267493   1.62100584  -2.23284496
H    3.03571774   1.06570123  -1.79197697
H    1.55361499   1.36941905  -1.84695075
O   -3.56898319   2.06494106   2.11413544
H   -3.57905869   2.18440590   1.16447314
H   -3.31790111   1.14963094   2.23822019
O   -0.14830950  -0.31618050   3.70350028
H    0.56713044  -0.94961196   3.75955499
H    0.01135687   0.15441403   2.88540536
O   -2.19943142  -3.24673357   2.12075320
H   -2.41308685  -3.27233158   1.18805392
H   -2.39864198  -2.34946096   2.38805241
O    1.98760019  -2.05258765   3.42691532
H    1.47319640  -2.62648422   2.85923291
H    2.48994153  -1.50540163   2.82319975
O    2.40438768  -1.99471476  -2.20748247
H    1.87280445  -1.72382851  -1.45896944
H    2.16646220  -1.38341924  -2.90457723
O    3.08518076  -0.59892511   1.32441890
H    2.95478534   0.33543738   1.48626950
H    2.29381446  -0.87514688   0.86217139
O    2.48768386   2.06208102   1.51887342
H    2.43110715   2.74385570   0.84938540
H    1.61574368   1.66745591   1.53381298
O    1.71016262  -0.20560120  -4.13317909
H    0.75990401  -0.21827493  -4.01881210
H    2.00595951   0.53378067  -3.60209483
S   -0.14379839  -0.02043197   0.00540050
O    0.16501160   0.73389277   1.25268979
O    0.77368393  -1.18892520  -0.10839643
O   -1.55415829  -0.49890710   0.05063902
O    0.04026918   0.87221165  -1.17333039
