65
Energy:  -1639.56523002
O   -0.75562073   0.78482471  -3.31387357
H   -1.50597171   0.24937049  -3.05600917
H   -0.25893704   0.90742178  -2.50485743
O   -1.99646359   3.09561505  -2.52088564
H   -1.30685375   3.46654693  -1.97035893
H   -1.58206923   2.34974119  -2.95468437
O    3.51927602  -0.74298454  -3.05728650
H    3.53249885  -0.00392424  -2.44913613
H    3.11319882  -1.45422776  -2.56184100
O   -3.24147800   1.49538893  -0.69933875
H   -2.50541631   0.98242629  -0.36570067
H   -2.84147288   2.13157785  -1.29220586
O    0.06596395   3.77133075  -0.90329512
H   -0.22146070   3.82696334   0.00803574
H    0.35876257   2.86601870  -1.00775044
O   -3.02392157  -0.55094921  -2.51299860
H   -2.81620794  -1.27933114  -1.92772375
H   -3.27233907   0.16421983  -1.92729061
O   -0.77920979   3.54301987   1.70243847
H   -0.24717568   2.74735005   1.71144340
H   -1.67793405   3.23201406   1.81107521
O   -0.14978940  -4.03880703  -0.63496166
H    0.08858194  -3.86264526   0.27519107
H    0.52525657  -3.59659954  -1.14974056
O    0.46594898  -3.03014342   1.82822868
H   -0.45319441  -2.91298869   2.06839953
H    0.66697216  -2.27646406   1.27344138
O   -2.27278911  -2.30213006  -0.51075919
H   -1.53551262  -2.89613907  -0.65150193
H   -1.86826333  -1.47618774  -0.24541030
O   -2.20366178  -0.02267587   2.74571754
H   -1.40463043   0.06602103   3.26524965
H   -1.90427142   0.01188658   1.83720079
O    3.33544707   1.11509393  -1.06466320
H    3.46802394   0.44659032  -0.39253363
H    2.38487113   1.17383856  -1.16050837
O   -3.27750360   2.39411889   1.91031439
H   -3.38220145   2.15322043   0.98985899
H   -2.97749881   1.59096406   2.33595659
O    0.30041875   0.19107264   3.88120220
H    0.96901052  -0.49391544   3.88406689
H    0.44997063   0.66899048   3.06544450
O   -2.22020941  -2.70016634   2.20817850
H   -2.39046789  -2.64907311   1.26762899
H   -2.29471947  -1.79653644   2.51498966
O    2.24366164  -1.75499860   3.49388782
H    1.64372166  -2.30966928   2.99524537
H    2.79256486  -1.33769352   2.82996495
O    1.71600418  -2.44606323  -1.82194683
H    1.49921567  -1.87759363  -1.08297667
H    1.26295963  -2.05312459  -2.56799087
O    3.47948472  -0.49769187   1.30442784
H    3.38279509   0.41292967   1.58308779
H    2.61754508  -0.73730709   0.96402155
O    3.09946000   2.18510508   1.55615832
H    3.25847839   2.22236285   0.61299510
H    2.16678401   1.98459904   1.63454635
O    0.98661342  -1.14610741  -4.12222048
H    0.38810879  -0.43020646  -3.90889003
H    1.85811687  -0.78979523  -3.94972345
S    0.25139819   0.35969135   0.23033872
O    0.57993675   1.20928489   1.40947112
O    1.03699032  -0.90473644   0.29489384
O   -1.20410947   0.04103682   0.23787298
O    0.59277514   1.09318014  -1.02088308
