65
Energy:  -1650.95883527
O   -1.68197768   1.00986519  -3.06649334
H   -2.36092692   0.44535109  -2.69692113
H   -0.99193777   1.02110730  -2.40320578
O   -2.56577153   3.33813945  -1.96606377
H   -1.73924736   3.62412296  -1.57708681
H   -2.32623052   2.59413809  -2.51861597
O    4.03763154  -0.97866438  -1.81380698
H    4.01383050  -1.01747065  -0.85769013
H    3.26952376  -1.47672950  -2.09340207
O   -3.33841032   1.55936712  -0.05570122
H   -2.54116117   1.04126567   0.05473661
H   -3.09047634   2.25428129  -0.66550028
O   -0.13007873   3.73064933  -0.86581581
H   -0.19143774   3.74234312   0.08934396
H    0.19538481   2.85504803  -1.07468823
O   -3.75383769  -0.38211790  -1.93954883
H   -3.35677016  -1.13399863  -1.49995290
H   -3.79510310   0.29590608  -1.26515095
O   -0.38384656   3.43706150   1.85089281
H    0.13067055   2.64270592   1.70770341
H   -1.23879809   3.12000018   2.14203170
O   -0.29882420  -3.86554793  -1.23087346
H    0.03397026  -3.83112582  -0.33404861
H    0.34416789  -3.37657241  -1.74438681
O    0.55010244  -3.25658567   1.31313023
H   -0.31848798  -3.13734635   1.69727149
H    0.72016905  -2.43871420   0.84580223
O   -2.36422821  -2.22384131  -0.46561563
H   -1.67822252  -2.78172365  -0.83221534
H   -1.91057081  -1.41925115  -0.21449519
O   -1.74941419  -0.22121938   2.88165852
H   -0.88147484  -0.13656003   3.27630510
H   -1.59866580  -0.10638089   1.94340541
O    3.17125683   1.64239712  -1.71559116
H    3.49206705   0.75312070  -1.86559149
H    2.22504469   1.54183406  -1.61166083
O   -2.81060484   2.30277216   2.53544495
H   -3.11688868   2.14200072   1.64293467
H   -2.47171743   1.45702724   2.82887759
O    0.84997679   0.03389260   3.64426926
H    1.40515906  -0.73668975   3.52507472
H    0.93478503   0.51997404   2.82404718
O   -2.00118170  -2.85160289   2.17416351
H   -2.27995594  -2.71259793   1.26906993
H   -1.96880669  -1.97311990   2.55291321
O    2.39530383  -2.17323846   3.04925344
H    1.75750527  -2.67212582   2.53880634
H    2.94283005  -1.74167129   2.39335964
O    1.61660634  -2.20238396  -2.32179738
H    1.43410771  -1.80440877  -1.47059715
H    1.31378339  -1.55550622  -2.95904089
O    3.56653806  -0.92851556   0.88794549
H    3.67016809   0.01127117   1.03725576
H    2.66768902  -1.02378732   0.57294463
O    3.48318579   1.78302766   1.00574290
H    3.50614123   1.89010325   0.05482770
H    2.55447961   1.67972551   1.21326483
O    0.79796209  -0.04799513  -3.76049100
H   -0.11613483   0.12544976  -3.98538106
H    0.93067446   0.40599985  -2.92832044
S    0.30983350   0.30871024   0.03845195
O    0.84462983   1.12798360   1.16223309
O    1.04128248  -0.98794866  -0.02285134
O   -1.14103607   0.05058728   0.25856567
O    0.49445774   1.04421874  -1.24413963
