65
Energy:  -1640.82678249
O   -1.21543335   1.52210266  -3.00689782
H   -1.89964396   0.86572966  -2.87551222
H   -0.62607912   1.40693795  -2.26149154
O   -2.25614804   3.45792128  -1.17145124
H   -1.74486297   3.42882688  -0.36276531
H   -1.75534245   2.92753695  -1.79122384
O    4.06229644  -0.67590573  -1.49942748
H    3.96927112  -0.66541739  -0.54681626
H    3.33804802  -1.22193497  -1.80528390
O   -3.54764296   1.26319812  -0.29521730
H   -2.76127077   0.75984289  -0.08430468
H   -3.21655185   2.09751442  -0.62767309
O    2.39500545   3.41452813  -0.51568722
H    1.50666325   3.09592588  -0.35577292
H    2.70800720   2.89214343  -1.25418298
O   -3.25381403  -0.27772716  -2.52351364
H   -3.52747498   0.27861233  -1.79424832
H   -2.94102698  -1.08134672  -2.10807206
O   -1.24653595   3.21640781   1.44368367
H   -0.56623339   2.55241765   1.55565395
H   -2.02042103   2.84017464   1.86294771
O   -0.03696437  -3.80547646  -1.37917903
H    0.22042407  -3.78576413  -0.45744454
H    0.58016332  -3.21649232  -1.81332524
O    0.55689710  -3.27128845   1.24979444
H   -0.36336553  -3.24685999   1.51200007
H    0.71593204  -2.41525574   0.85211650
O   -2.26495346  -2.28850933  -0.88913918
H   -1.50165816  -2.80292133  -1.15180330
H   -1.89718948  -1.49924391  -0.49159471
O   -2.16996957  -0.57887103   2.75042818
H   -1.36384401  -0.47759594   3.25652776
H   -1.91434990  -0.38024209   1.84963021
O    2.62832422   1.45759001  -2.41801502
H    3.19919130   0.76578854  -2.08371972
H    1.82763694   1.37957224  -1.89931958
O   -3.46452638   1.84123530   2.37526084
H   -3.65604183   1.67459647   1.45233875
H   -3.05137108   1.03488363   2.68401889
O    0.30463719  -0.21105492   3.84840721
H    0.96096421  -0.89657682   3.72380216
H    0.40480925   0.35858080   3.08570638
O   -2.12490833  -3.12318346   1.73344196
H   -2.32082866  -2.91359877   0.82024903
H   -2.21156581  -2.28911179   2.19501186
O    2.17998592  -2.13151776   3.17372471
H    1.63012882  -2.64550707   2.58236694
H    2.73020733  -1.60550649   2.59337965
O    1.69831676  -1.87025121  -2.24802915
H    1.43919527  -1.50382626  -1.40255847
H    1.35116598  -1.25416919  -2.89313467
O    3.43893184  -0.62382031   1.19260703
H    3.42341498   0.29692148   1.45380738
H    2.57261352  -0.78143038   0.81726253
O    2.98040890   2.01088550   1.78152857
H    2.98099816   2.59100930   1.02015620
H    2.07324573   1.71493927   1.85704451
O    0.92388322   0.08542225  -4.04568741
H    0.10683582   0.53355430  -3.82695687
H    1.60633036   0.61716205  -3.63611380
S    0.14239490   0.33382418   0.23344696
O    0.46513429   1.07519998   1.48496653
O    0.99944839  -0.88150464   0.14106096
O   -1.29173976  -0.06996267   0.25116638
O    0.39673668   1.21156407  -0.94340604
