13
Energy:   -823.00884300
O    0.05642828   0.30298306   1.53116322
H   -0.09581382   1.18186609   1.87846542
H   -0.25234016  -0.28445466   2.22095363
O    1.01892554   1.57693411  -0.73855908
H    0.29751164   2.00134909  -1.20295735
H    1.66397574   2.27242167  -0.61034388
O   -1.47500254   0.37215577  -1.10881743
H   -2.18967721   0.69016496  -0.55714533
H   -1.83955606   0.36586055  -1.99385582
O    0.68573871  -2.33096013   0.21327341
H    1.26162017  -2.96074643  -0.22027199
H    0.24406375  -2.83868353   0.89398776
Ca   0.52780052  -0.34496110  -0.28164326
