13
Energy:   -813.52802118
O    1.44152449   1.00193512  -1.00653799
H    1.92965080   1.39986738  -0.28569511
H    2.09016820   0.88700533  -1.70100493
O    0.06698795  -1.92693583  -1.11847365
H    0.83397078  -2.46059222  -0.91067558
H   -0.32678201  -2.35781434  -1.87710451
O   -2.13777786   0.19732640   0.32576947
H   -2.14780532   0.81637763   1.05577418
H   -3.04195209  -0.10966400   0.25900342
O    0.49645744   0.79051533   1.57188409
H    0.59390837   0.12120070   2.24919723
H    0.51048671   1.61962184   2.05002364
Ca  -0.26656748  -0.01484283  -0.55047983
