13
Energy:   -814.23180219
O   -0.53046569  -0.87890127  -1.79009043
H   -0.93876704  -0.29042606  -2.42508554
H   -0.65619012  -1.75355495  -2.15806617
O   -1.76553398  -0.41377268   0.97157631
H   -2.05314570  -1.06080279   1.61567521
H   -2.57714810  -0.04518809   0.62277870
O    1.89630401  -0.04918977  -0.84037671
H    1.79201937  -0.73134784  -1.50371442
H    2.74097793   0.35379249  -1.04128245
O    0.52035841   1.40787654   1.77070853
H    1.41997584   1.65194510   1.98831108
H   -0.00052935   1.73127790   2.50577271
Ca   0.09729686   0.04765217   0.25124648
