13
Energy:   -816.69892667
O   -2.15390417  -0.34463906   1.08176517
H   -2.93081289  -0.69283325   0.64426604
H   -2.38633381  -0.33290934   2.01024280
O    1.86651887   0.24409054   0.10648381
H    2.51414446   0.52389410  -0.54044966
H    2.35802779   0.17849387   0.92523157
O   -0.30648077   1.81040888  -0.21169208
H    0.49841844   2.31167470  -0.08091867
H   -0.96873696   2.46966323  -0.41913435
O    0.41126312  -1.76706195  -0.97939005
H    1.32809604  -1.93592504  -0.76228526
H    0.25390274  -2.28012550  -1.77200304
Ca  -0.43359703  -0.17314487  -0.00064204
