13
Energy:   -810.86774614
O   -0.53105615   1.21540098   1.36868672
H    0.04000934   1.95845290   1.56359670
H   -1.30948649   1.36366166   1.90561952
O    1.67498350  -0.99874622  -1.40842424
H    2.42702187  -1.53929247  -1.16659810
H    1.59526291  -1.10858784  -2.35595329
O   -0.36661072  -1.59572478   1.17086365
H   -0.14967007  -2.44212571   1.56172688
H   -0.88598682  -1.14878957   1.83924170
O   -0.77121273   1.17007880  -1.28530627
H   -0.69184608   1.60673324  -2.13340160
H   -1.26211903   1.78716106  -0.74267166
Ca   0.25648442  -0.17382668  -0.26303908
