13
Energy:   -813.30778246
O   -0.51681908   0.08111358  -2.25957941
H   -0.33358378  -0.59409143  -2.91284419
H   -0.56418808   0.89451375  -2.76194200
O    0.53992893   1.78658582  -0.10087759
H    0.79242682   2.59906268  -0.53946397
H    1.18051551   1.68476144   0.60304888
O   -1.54383945  -1.12845185   0.98263134
H   -2.44720170  -1.40641898   0.83129476
H   -1.22237854  -1.71809548   1.66469814
O    1.33135788  -0.54644010   1.29396919
H    1.97649374  -1.25332516   1.27539274
H    1.16767030  -0.39532368   2.22488382
Ca  -0.28986975  -0.12315104  -0.28811791
