13
Energy:   -820.27196452
O   -1.09329432  -1.41209416   0.42620772
H   -1.77484207  -1.73189169   1.01735410
H   -1.01047594  -2.09693900  -0.23738893
O    1.61804018  -0.98224347   0.37731621
H    2.55998342  -1.07655143   0.51902291
H    1.22377321  -1.66070996   0.92546641
O   -1.06783276   0.46168461  -1.78941337
H   -1.42653955   1.14951040  -2.35017799
H   -1.17938689  -0.34307902  -2.29551911
O    0.56591422   2.09729779   0.96848629
H    1.45611600   2.41037620   1.12896855
H    0.00398440   2.73772264   1.40474623
Ca   0.12644450   0.40271264  -0.09651929
