13
Energy:   -827.25537215
O    0.94494499  -0.89920567   1.08901465
H    1.36462941  -1.69472316   1.41650322
H    1.14167547  -0.23480076   1.74938961
O   -0.30102586  -0.95066262  -2.14670196
H   -1.11309970  -1.38143868  -2.41353511
H    0.24360893  -0.95654997  -2.93382974
O   -1.80912912  -0.00808419   0.38834775
H   -2.22461680  -0.57693108   1.03643344
H   -2.51730461   0.55310514   0.07245875
O    1.22798845   1.74592431   0.58503839
H    2.13153265   2.03469735   0.45678140
H    0.82722252   2.43800253   1.11101011
Ca   0.05560286  -0.00920337  -0.41158555
