13
Energy:   -829.66347794
O    1.51748385   1.05320141  -0.23740799
H    2.32074449   1.36281987   0.18109003
H    1.55170203   1.41784802  -1.12176867
O   -0.18136199  -1.49306547  -1.83471823
H    0.49252449  -1.85177549  -2.41215740
H   -0.99439138  -1.90153956  -2.13197899
O    0.16023506  -0.41424293   2.05516181
H   -0.15613700   0.12083290   2.78305907
H    0.47242895  -1.21974625   2.46738898
O   -1.47121907   0.83831801   0.12615718
H   -1.41241959   1.71758965  -0.24754837
H   -2.41069671   0.67659136   0.21251745
Ca   0.10984589  -0.33638421   0.11345452
