13
Energy:   -815.01495550
O   -1.13348045   0.29462394   1.83442701
H   -0.71485731   0.39273352   2.68962349
H   -1.99411917  -0.07608904   2.02963130
O   -0.83387894   0.26087658  -1.61251866
H   -1.15578616  -0.63725881  -1.53531490
H   -1.07762887   0.52782254  -2.49883558
O    1.78258945   1.52387711  -0.11193220
H    2.12694190   2.07621056  -0.81377335
H    2.46776315   1.53010283   0.55644650
O    0.17046534  -1.77454282  -0.19384435
H   -0.51797115  -2.37678061   0.08828452
H    0.84975780  -2.34103588  -0.55973945
Ca   0.04288204   0.48843100   0.19553283
