13
Energy:   -810.18481770
O   -0.98618304   1.55232497  -0.09348740
H   -0.86859637   2.00567629  -0.92827947
H   -1.56798700   2.12235583   0.40930561
O    0.16800547  -1.75899917   1.11297107
H   -0.24055241  -2.05863137   1.92508735
H    0.75306270  -2.47340702   0.86085740
O   -0.77912708  -0.66005894  -1.93742944
H   -1.51387571  -0.44806775  -2.51313425
H   -0.07568473  -0.92044824  -2.53207060
O    1.43257989   0.80116626   1.07692398
H    2.16731699   0.29357649   1.42151920
H    1.77740564   1.68915263   0.98307699
Ca  -0.19899769  -0.12276881   0.14421375
