13
Energy:   -825.76277213
O   -1.65000577  -1.14456687   0.89768212
H   -2.40430473  -0.90466264   1.43593009
H   -1.67817801  -2.10050777   0.85749288
O    1.38383763  -0.60326160   1.14653601
H    1.53695153  -0.63562795   2.09085608
H    2.17283963  -0.98540033   0.76224748
O   -1.47977104   1.08823870  -0.78461364
H   -1.52526245   2.03501209  -0.65126249
H   -2.20084251   0.89536345  -1.38385224
O    1.67831664   0.66853093  -1.25979148
H    1.84884536   0.72065826  -2.20023528
H    2.44271785   1.07773764  -0.85423937
Ca  -0.09951107  -0.13129646  -0.06389971
