13
Energy:   -811.85164271
O   -1.70173034  -0.27279228  -1.06199172
H   -1.14106375  -0.41429878  -1.82478969
H   -2.59311836  -0.31452546  -1.40828290
O    1.55468573  -0.70980878   1.05689898
H    2.30562923  -0.94806566   0.51325444
H    1.80970700  -0.96493950   1.94352422
O    0.96437245  -0.15003801  -1.71150407
H    1.37507556   0.60261994  -2.13701648
H    1.39444064  -0.91075466  -2.10212329
O   -1.05487157   1.17689843   1.81714223
H   -0.67854571   1.82759677   2.40976552
H   -1.92503461   1.00109899   2.17511246
Ca  -0.20285359   0.05960490   0.31032328
