13
Energy:   -833.24015654
O    0.80509920  -1.20938442   1.26227271
H    0.95922389  -2.15405262   1.25336142
H    1.42378176  -0.87138192   1.90974321
O   -0.40069674   0.56536521  -1.91427884
H    0.28130698   1.18725314  -2.16796798
H   -0.83458958   0.33651643  -2.73622597
O    1.39538683   1.32091791  -0.16752377
H    1.36838460   2.23591951   0.11225259
H    2.32270369   1.14639666  -0.32832685
O   -2.01965753  -0.71956466   0.72493807
H   -1.98268749  -1.05257010   1.62158318
H   -2.95444103  -0.62232584   0.54339945
Ca  -0.27495634  -0.15768601  -0.06945653
