13
Energy:   -810.25866426
O    0.69579412  -1.25546518   1.23411293
H    0.81069657  -1.74960762   2.04581025
H    1.56371322  -0.89856008   1.04552067
O   -0.69045891  -0.85377186  -1.88361544
H   -0.20330519  -0.36248200  -2.54508908
H   -1.38702698  -1.29056705  -2.37375290
O   -1.45918658   0.95821242   1.06119123
H   -1.63074194   1.81860394   0.67840271
H   -1.46377558   1.11072126   2.00615252
O    1.23913595   0.78011360  -0.34579500
H    1.40895415   1.59409308   0.12836851
H    1.82171071   0.81822919  -1.10433683
Ca  -0.66356634  -0.52675857   0.01923081
