13
Energy:   -818.36768756
O    0.04809139   1.81419861  -0.56599105
H   -0.17015596   2.40902250  -1.28347588
H    0.41802949   2.38058039   0.11120119
O   -0.07720758  -0.28882014   1.54274671
H    0.41944854   0.18532080   2.20964618
H   -0.71392641  -0.80365091   2.03849893
O    2.03782966  -1.22647021  -0.15514770
H    2.83448555  -0.71053207  -0.27916012
H    2.35173743  -2.10288771   0.06753171
O   -2.01539524  -0.41874967  -0.96902939
H   -2.44506666  -1.27407047  -0.96265374
H   -2.69890683   0.19111595  -1.24671208
Ca   0.01656515  -0.10108825  -0.48160884
