13
Energy:   -811.65012950
O   -1.54394288   1.33367465  -0.54952156
H   -2.49915131   1.39538930  -0.54962584
H   -1.25076025   2.14859051  -0.95718309
O    1.83084570  -0.63011674  -0.69732158
H    2.08221167  -1.51227716  -0.42375259
H    2.40060802  -0.43835886  -1.44219182
O    0.97261419   1.00611658   1.10720026
H    1.76955475   0.47675237   1.13705196
H    1.13329377   1.71695651   1.72778106
O   -1.37139373  -1.52447157   0.18251828
H   -1.95110560  -2.08062582  -0.33792235
H   -1.34771827  -1.94188189   1.04358735
Ca  -0.18495393  -0.05739329  -0.29783204
