13
Energy:   -822.46083509
O    1.75860999  -0.44231904  -1.17531631
H    1.72864063  -0.83550423  -2.04751989
H    2.56869169   0.06755063  -1.16962392
O    0.04492970  -1.87673195   0.49899017
H    0.78611800  -1.95026339   1.10020967
H   -0.08761469  -2.76634850   0.17150548
O    0.21131806   1.92719305   0.76471130
H    0.63256341   2.70767345   0.40466334
H   -0.11222393   2.20310165   1.62228163
O   -2.09909366   0.27811753   0.04879075
H   -2.66057106   1.00772305   0.31080364
H   -2.67638277  -0.30324259  -0.44617343
Ca  -0.05525837   0.05094058  -0.17848412
