13
Energy:   -813.66140552
O   -1.36849156   0.64407767  -1.73781732
H   -1.95121701   0.18754878  -2.34464865
H   -0.99828718   1.36038291  -2.25365390
O    0.18308333   1.53777045   1.31546241
H    0.53304317   1.51463950   2.20609417
H   -0.26400866   2.38198721   1.25514120
O   -0.85190099  -1.30746841   1.14641028
H   -1.49933540  -1.87952922   0.73433389
H   -0.85313249  -1.56799210   2.06747365
O    1.97847560  -0.78082099  -0.68456899
H    2.44785666  -1.52835798  -0.31429650
H    2.45851194  -0.56860148  -1.48504375
Ca   0.24537574  -0.05045051   0.08296700
