42
Energy:   -217.04014667
O   -1.57228870  -0.32247573   2.01532331
H   -0.72865860  -0.79456325   1.95331600
C   -2.40671866  -1.04720864   2.90471784
H   -3.35251905  -0.50172299   2.96296068
H   -1.98812844  -1.11421980   3.92111789
H   -2.62219010  -2.06717162   2.54971796
O   -0.09267217  -2.30485269  -0.96810019
H    0.25260654  -2.10621490  -0.08506626
C   -1.49872711  -2.45669143  -0.85634918
H   -1.87132812  -2.67999351  -1.85973837
H   -1.99848972  -1.54138686  -0.50246753
H   -1.78530818  -3.28771612  -0.19298911
O    0.95073663  -1.52795938   1.57269747
H    1.42536482  -0.68639375   1.50256447
C    1.90572219  -2.53855684   1.85417417
H    1.35421909  -3.47961643   1.92991298
H    2.43134599  -2.37321968   2.80767330
H    2.65779800  -2.64682672   1.05703118
O    1.77574428   1.87645386  -1.41032376
H    1.28110861   1.23303719  -1.93926026
C    2.97722691   2.17152143  -2.10452000
H    3.52206974   2.89750819  -1.49495071
H    2.79744583   2.62233166  -3.09306754
H    3.61964622   1.28701052  -2.23761847
O   -2.73610826   1.05414667  -0.16800492
H   -2.39823514   0.60664130   0.62193431
C   -1.86878570   2.14039957  -0.45144799
H   -2.26393647   2.63333842  -1.34383376
H   -0.83869101   1.81674817  -0.66808599
H   -1.83618470   2.88199597   0.36203175
O    2.05383146   1.00856190   1.24582506
H    2.02722231   1.37936556   0.35127496
C    1.29452635   1.86112286   2.08792324
H    1.33505433   1.42881092   3.09139176
H    0.23733092   1.92514191   1.78623346
H    1.70364841   2.88227445   2.13936156
O    0.35586784  -0.13855247  -2.73397102
H    0.21446668  -0.95239117  -2.22791217
C   -0.84118900   0.14159333  -3.44186016
H   -0.66446096   1.06113973  -4.00638370
H   -1.70042746   0.31074902  -2.77412296
H   -1.10793556  -0.65215866  -4.15710932
