42
Energy:   -217.40905051
O    0.73748687  -0.38604397  -2.05330174
H    0.74987556   0.56028677  -2.26000909
C   -0.59600645  -0.73618240  -1.71903773
H   -0.59190687  -1.80509793  -1.48906385
H   -1.30047157  -0.56818255  -2.54866552
H   -0.96769500  -0.19781924  -0.83315397
O   -2.56276808  -1.24503416   1.12394383
H   -1.65120585  -1.35798136   1.43171081
C   -3.12992354  -2.53680013   0.97491654
H   -4.15643692  -2.39106577   0.62776099
H   -3.16624109  -3.09715261   1.92226202
H   -2.60095289  -3.14994993   0.22858235
O    0.48304281   2.42475485  -2.25147385
H   -0.17276700   2.60723086  -1.56224291
C    0.67336817   3.61986789  -2.99175410
H    1.41484192   3.39656384  -3.76365900
H    1.06120325   4.44526128  -2.37443163
H   -0.24671260   3.96194385  -3.49096624
O   -1.29339410   2.70076113  -0.09509070
H   -0.77947129   2.29139715   0.61675743
C   -2.64791630   2.31502927   0.07524521
H   -3.21255819   2.78473490  -0.73471859
H   -3.07134430   2.66023366   1.03144601
H   -2.79189832   1.22550664   0.00462693
O    2.10978399  -1.92689513  -0.15323789
H    1.68888226  -1.43344501  -0.87280163
C    3.32763186  -2.45810563  -0.65042572
H    3.78859524  -3.01072911   0.17274210
H    4.03234169  -1.67588078  -0.97335865
H    3.17624573  -3.15676010  -1.48812585
O    0.16735508  -1.58575526   1.82642144
H    0.87246252  -1.82526175   1.20683819
C    0.58328143  -1.97858355   3.12458359
H   -0.22237827  -1.70149727   3.80987246
H    1.50090652  -1.46449073   3.45085051
H    0.74475906  -3.06467456   3.20889628
O    0.33943535   1.26631531   1.69700318
H    0.23111967   0.31180887   1.82193692
C    1.61201351   1.48167174   1.10819063
H    1.71757960   2.56169827   0.97446067
H    1.70993199   1.00422176   0.12065288
H    2.43990455   1.13410086   1.74581767
