42
Energy:   -219.44582618
O    0.10168773  -2.68239381  -1.43530384
H    0.82220279  -2.16013032  -1.05252169
C    0.20014597  -3.99830330  -0.91451410
H   -0.61867249  -4.57293403  -1.35589947
H    0.08905339  -4.03163658   0.18062272
H    1.14720258  -4.49209650  -1.18289702
O   -0.20622465   2.62832510   1.05464907
H   -1.08915438   2.27131427   0.87744400
C    0.14541397   2.26825663   2.38101054
H    1.14237591   2.67821430   2.56400451
H    0.19258142   1.17777363   2.52729584
H   -0.54040759   2.69028086   3.13222400
O   -1.69536595  -0.49511528  -1.59061433
H   -1.21605361  -1.33690550  -1.59911031
C   -1.00892433   0.39975489  -2.45116012
H   -1.56208575   1.34264491  -2.42980449
H   -0.97655889   0.04648937  -3.49372104
H    0.02198565   0.60119616  -2.12036810
O    1.93319249  -0.94867576  -0.17820506
H    1.98723451   0.00058024  -0.36371996
C    3.20642802  -1.37003577   0.28424582
H    3.12777827  -2.44130055   0.48843003
H    3.50862760  -0.86625358   1.21572649
H    4.00082658  -1.22255841  -0.46405806
O   -2.60593605   1.33771650   0.33586206
H   -2.35880465   0.69600123  -0.34645081
C   -4.02073343   1.33188094   0.44001624
H   -4.28185997   2.06003413   1.21273292
H   -4.42063207   0.35217581   0.74503473
H   -4.51723829   1.63390370  -0.49542083
O    1.92647902   1.82077950  -0.55980330
H    1.22211891   2.17784469   0.00127116
C    2.44048515   2.88977961  -1.33798725
H    3.23263594   2.47010817  -1.96397304
H    2.87970611   3.69070102  -0.72285542
H    1.68247730   3.33640135  -2.00035456
O    0.37638585  -1.77327129   2.09832867
H    0.87673259  -1.47212399   1.32542071
C   -0.99930482  -1.54830466   1.83489183
H   -1.54825546  -1.89304160   2.71540012
H   -1.36325860  -2.11366757   0.96272227
H   -1.23428679  -0.48340849   1.68140908
