42
Energy:   -218.16050590
O   -2.27876543   0.50840322   1.67595508
H   -1.77255525   1.33085329   1.60012357
C   -1.35462582  -0.56791677   1.67003727
H   -1.94154107  -1.48639352   1.75615432
H   -0.65282507  -0.53049034   2.51788885
H   -0.77080318  -0.62200050   0.73783374
O   -0.43596677  -2.67083245  -1.26470756
H    0.23726295  -2.69021458  -0.56842504
C   -1.45347062  -3.59175264  -0.90536691
H   -2.20344656  -3.55722388  -1.70024366
H   -1.94862094  -3.32977420   0.04277380
H   -1.08341448  -4.62622684  -0.82987587
O   -0.70843519   2.82297253   1.09715848
H   -0.14737228   2.58791935   0.34324755
C   -1.70379585   3.71938025   0.62999241
H   -2.32681167   3.97386101   1.49172092
H   -2.35195395   3.27160901  -0.13953298
H   -1.28026671   4.65282024   0.22738816
O    1.48238217  -2.43667616   0.77474093
H    1.75096588  -1.51849960   0.92718068
C    2.66148776  -3.20930049   0.61569563
H    2.34070606  -4.24052088   0.44490679
H    3.30310285  -3.19514711   1.51062976
H    3.26456211  -2.89168373  -0.24928891
O    2.09838160   0.29276989   0.97555220
H    1.71087076   0.86351372   0.29547124
C    2.11759463   1.02377984   2.19119569
H    2.55699293   0.36627582   2.94624720
H    1.10994887   1.30916556   2.53175750
H    2.73458082   1.93394816   2.13037634
O    0.78382372   1.78654183  -1.05913934
H    0.20223588   1.17883573  -1.53963092
C    1.77581057   2.24038894  -1.96606749
H    2.42215940   2.92369762  -1.40856624
H    1.35133145   2.79196498  -2.81950681
H    2.40064019   1.42224396  -2.35722483
O   -0.90386657  -0.07711158  -2.24722235
H   -0.77807753  -1.01216164  -2.02749119
C   -2.27420758   0.23123999  -2.04817820
H   -2.39826745   1.28792568  -2.30018953
H   -2.59471919   0.08935942  -1.00418608
H   -2.94103143  -0.35554316  -2.69918420
