42
Energy:   -219.25252334
O   -1.99015330  -1.04773167  -2.01872690
H   -2.17335643  -0.41116882  -1.31186933
C   -3.14244426  -1.86023675  -2.17555423
H   -2.91889827  -2.57140245  -2.97540155
H   -4.03270850  -1.28314951  -2.47081215
H   -3.38543646  -2.43343291  -1.26716098
O   -0.45193774  -0.69282838   1.89558988
H    0.46244055  -0.39005958   1.99886943
C   -0.41741220  -1.95101504   1.24113736
H   -1.45531250  -2.27739860   1.13286937
H    0.12262420  -2.71667983   1.81983887
H    0.02958677  -1.89549774   0.23620598
O    0.74399043   2.73872957   2.09991527
H    1.29348520   1.94550753   2.01460659
C    0.00912312   2.62538094   3.30807746
H   -0.60431440   3.52689362   3.38841741
H    0.65736903   2.57324596   4.19680493
H   -0.66312167   1.75314795   3.31667273
O   -2.32128777   0.60763136   0.22180852
H   -1.74511112   0.20917832   0.89089664
C   -2.35069228   2.00634425   0.45690725
H   -3.00400724   2.43937544  -0.30542388
H   -1.35839400   2.47444829   0.36203868
H   -2.76281609   2.26282747   1.44541504
O    0.59538493  -2.01542369  -2.47543686
H   -0.33182459  -1.75350204  -2.37492402
C    0.84696943  -2.18492948  -3.86126037
H    1.89553232  -2.47979127  -3.95643172
H    0.69951897  -1.25765411  -4.43675675
H    0.22761281  -2.97599395  -4.31225008
O    2.20722632   0.31908923   1.74887152
H    2.24855429   0.17674831   0.79155530
C    3.53789639   0.45383346   2.22183550
H    3.47288971   0.61349529   3.30154261
H    4.06092110   1.31642414   1.78006654
H    4.14504787  -0.44796512   2.04604090
O    1.98692079  -0.03726899  -1.00847615
H    1.64765790  -0.77233688  -1.54045281
C    1.20444039   1.10761824  -1.30762732
H    1.60001284   1.92601986  -0.69998728
H    0.14161478   0.97507014  -1.05148271
H    1.27240868   1.40445743  -2.36594870
