42
Energy:   -219.10383281
O   -0.02772459  -2.51285588  -0.32900823
H    0.57680990  -2.32151910   0.40335203
C    0.54677874  -1.98025731  -1.51172479
H   -0.14693248  -2.20459444  -2.32653936
H    1.51874947  -2.43707985  -1.75537085
H    0.67796724  -0.88778951  -1.46610660
O    2.54611912   0.77525630   0.24971865
H    1.90387039   1.19063118  -0.34475889
C    3.19682823   1.80935340   0.97065874
H    3.91664782   1.32400048   1.63532218
H    2.50227871   2.39747659   1.59073085
H    3.74937577   2.50141075   0.31604040
O   -1.92251385   0.64830171  -1.91893044
H   -2.30250720  -0.10443654  -1.44205157
C   -2.37669107   0.58112834  -3.26122123
H   -1.93937672   1.43608047  -3.78400055
H   -3.47240489   0.65464886  -3.34358191
H   -2.05040029  -0.33659387  -3.77512550
O    0.49832200   1.91723444  -1.30276617
H   -0.33634618   1.49523451  -1.55509209
C    0.31749629   3.32095278  -1.39977464
H    1.26695139   3.78063153  -1.11217134
H   -0.46348012   3.69705077  -0.72050777
H    0.07553082   3.64883856  -2.42286846
O   -2.70153616  -1.67796183  -0.55337275
H   -1.83133649  -2.09489614  -0.46768960
C   -3.40198924  -1.89008962   0.66190543
H   -4.37975888  -1.41415850   0.54814554
H   -2.89858677  -1.43307941   1.52822232
H   -3.56498452  -2.95756350   0.87802895
O    1.73274976  -1.49533852   1.65571330
H    2.14327670  -0.74785292   1.19619597
C    2.55297776  -1.82077812   2.76650080
H    2.07603702  -2.66442531   3.27273408
H    2.63886933  -0.99366365   3.48849916
H    3.56750324  -2.12986971   2.46989031
O   -0.61425070  -0.21071341   2.70568007
H    0.14541580  -0.73927267   2.41940189
C   -0.86355328   0.76239499   1.70396052
H   -1.72205722   1.34883596   2.04240280
H   -1.11820296   0.31495291   0.73044809
H   -0.01592188   1.45037526   1.55911065
