42
Energy:   -219.07199586
O   -1.15302252   0.53352885  -2.58900382
H   -0.21787623   0.28070299  -2.59094372
C   -1.83657563  -0.33878014  -3.47464818
H   -2.88826215  -0.04005393  -3.46038920
H   -1.77698763  -1.39336802  -3.16308598
H   -1.47384880  -0.26177833  -4.51160397
O   -1.20234564   1.47634209   2.16700489
H   -1.54593494   1.74602417   1.30234239
C   -0.82018026   2.65144054   2.86387434
H   -0.43555580   2.32946723   3.83541045
H   -1.66546209   3.33479745   3.04079043
H   -0.02305580   3.21065197   2.34943046
O    1.90507602  -2.31642028   2.08863346
H    0.97602383  -2.04452109   2.05180758
C    2.02445488  -3.30520433   3.09887530
H    3.07690839  -3.60023194   3.12690259
H    1.42357885  -4.20360937   2.88770304
H    1.74861124  -2.92927989   4.09655683
O   -2.13361600   2.01050610  -0.41179799
H   -1.80299378   1.57939257  -1.21382875
C   -3.55109933   1.97726058  -0.45837608
H   -3.90691586   2.46684361   0.45222167
H   -3.95213250   0.95172767  -0.47360686
H   -3.96111321   2.52356516  -1.32221476
O    1.51101700  -0.29642873  -2.40373637
H    1.95668601  -0.35749590  -1.54578928
C    2.51113776  -0.30448097  -3.40983150
H    1.99187648  -0.23508608  -4.36953837
H    3.10661870  -1.23086087  -3.41007932
H    3.19985387   0.55128585  -3.33166114
O   -0.69105277  -1.28399470   1.81499327
H   -0.91094850  -0.37260604   2.05879614
C   -0.91422326  -1.42240495   0.42087300
H   -0.66169672  -2.45455877   0.16324140
H   -0.27705058  -0.75487311  -0.18011748
H   -1.96426006  -1.24728353   0.13885788
O    2.68544268  -0.41873811   0.13800865
H    2.58138613  -1.11542371   0.80300841
C    2.33501056   0.81358262   0.74720214
H    2.45784157   1.58724628  -0.01558374
H    2.98576913   1.06726848   1.59863276
H    1.28891698   0.83584857   1.09066944
