42
Energy:   -218.35514465
O    1.69719072  -1.23716234  -2.17426072
H    1.57813826  -0.32251564  -1.87816748
C    1.16314936  -1.33834470  -3.48464072
H    1.30549420  -2.37470186  -3.80273975
H    1.67968040  -0.68584987  -4.20590594
H    0.08559351  -1.11436355  -3.52315258
O   -0.47772711   3.48067140  -0.33849400
H   -0.79857592   3.04319700   0.46406159
C   -1.58827038   3.66428690  -1.20192482
H   -1.20912352   4.15813425  -2.10072828
H   -2.36714399   4.30675744  -0.76219212
H   -2.05289348   2.71304142  -1.50529710
O   -1.22404112   1.81011795   1.82201706
H   -0.80120620   0.95064559   1.96672765
C   -2.62282888   1.59179067   1.73113375
H   -3.08352212   2.56989855   1.56818619
H   -3.04719593   1.16385197   2.65284868
H   -2.89754290   0.94014749   0.88693549
O    1.11548827   1.25397229  -0.97035499
H    0.65659196   2.10587754  -0.92458499
C    2.05873225   1.21573035   0.08858887
H    2.56654203   0.24970110   0.02224191
H    1.58683281   1.28588369   1.08114454
H    2.81982786   2.00766824   0.00893216
O    1.32826958  -2.38756638   0.36881117
H    1.50602476  -2.08295510  -0.53342956
C    1.60406874  -3.77834545   0.41573830
H    1.39863726  -4.10501420   1.43875864
H    2.65601497  -4.01118885   0.18776807
H    0.96378220  -4.36201375  -0.26407183
O    0.02506873  -0.69902263   2.20716374
H    0.46822355  -1.31796881   1.60804546
C    0.67849082  -0.77420248   3.46411296
H    0.16680238  -0.07093840   4.12674391
H    1.73904252  -0.48248634   3.41017672
H    0.61632994  -1.77636250   3.91642771
O   -1.52511570   0.05439455  -1.44770485
H   -0.64742339   0.36097176  -1.17551025
C   -1.72196648  -1.23579415  -0.89165032
H   -2.71509361  -1.56606293  -1.20804602
H   -1.69797610  -1.23251604   0.20934516
H   -0.98637023  -1.97136419  -1.25305342
