42
Energy:   -220.10030406
O    0.84067274  -1.19330397   3.00969910
H   -0.03633357  -0.85585747   2.77429931
C    1.68217090  -0.07618259   3.24730052
H    2.66574286  -0.47425033   3.51114417
H    1.33194961   0.54993642   4.08282274
H    1.80004745   0.56397255   2.35899661
O    1.85419838  -2.72844137   0.89043388
H    1.58399958  -2.25575869   1.69167477
C    1.57771715  -4.10560059   1.08924124
H    1.88804208  -4.62314429   0.17746706
H    0.50642968  -4.30571518   1.24759099
H    2.13984952  -4.53463034   1.93346751
O   -0.07987140   2.30298745   0.89278501
H   -0.40323667   2.37894616  -0.01720864
C   -0.19634636   3.58028018   1.49899506
H    0.17212141   3.47670907   2.52319706
H   -1.23764577   3.93573110   1.54512007
H    0.41073330   4.34772347   0.99376005
O    1.46222349  -1.19125248  -1.43223097
H    1.66975667  -1.80862099  -0.71514703
C    2.03927382   0.06189318  -1.10181811
H    1.79595546   0.74528216  -1.91990177
H    3.13578368   0.01449683  -1.01128058
H    1.63169955   0.48542385  -0.17053818
O   -1.21555498   2.20714456  -1.66180648
H   -1.12958454   1.35954803  -2.12290570
C   -2.59036253   2.55702302  -1.65700654
H   -2.66918444   3.51392077  -1.13392051
H   -3.21399322   1.82340818  -1.12252420
H   -2.99947000   2.68759726  -2.67108681
O   -1.44480951   0.02854345   1.85932930
H   -1.01726444   0.84607529   1.56391407
C   -1.64141067  -0.79101661   0.71818818
H   -2.12381566  -1.70740905   1.06889535
H   -0.69608656  -1.06945365   0.22664726
H   -2.29897810  -0.32468282  -0.03208857
O   -0.87867136  -0.36424956  -2.73072415
H   -0.06931910  -0.71015455  -2.32609849
C   -1.01653443  -0.97211203  -4.00509881
H   -1.93292781  -0.57138105  -4.44682617
H   -1.11690389  -2.06715848  -3.94529438
H   -0.18006232  -0.73626688  -4.68146321
