42
Energy:   -217.53718158
O    0.20093866  -2.26800524  -1.09916330
H    0.66815585  -2.07244397  -0.27339870
C    0.40562510  -1.17412550  -1.97897257
H   -0.12725438  -1.41089745  -2.90388539
H    1.46763541  -1.02052690  -2.22659910
H    0.00072835  -0.22921666  -1.58402545
O    0.81300059   1.06110307   2.40048046
H    0.29417790   1.44448682   1.67780266
C    1.94956678   1.88645489   2.59934082
H    2.52273542   1.44024036   3.41656508
H    1.68286696   2.91438151   2.89091486
H    2.60052064   1.93466733   1.71237297
O   -0.70032504   1.89489850   0.14504133
H   -1.36720291   1.19239786   0.15882644
C   -1.37664235   3.13333159   0.29137027
H   -0.61081174   3.91350962   0.27373777
H   -1.92073030   3.21055548   1.24571932
H   -2.08424583   3.33095404  -0.52900770
O    1.90760227   1.85213966  -0.96989939
H    1.00895413   1.87947861  -0.60919538
C    1.88679075   2.50838380  -2.22745427
H    2.90665729   2.46843098  -2.61957824
H    1.59202196   3.56663554  -2.15004655
H    1.22222021   2.01479458  -2.95374141
O   -2.58745315  -2.49966638  -1.34296039
H   -1.61883533  -2.51384842  -1.34424793
C   -3.03762482  -3.84498167  -1.34541365
H   -4.13046476  -3.81057466  -1.34391945
H   -2.71245185  -4.40383378  -0.45394061
H   -2.71476725  -4.39980158  -2.24024056
O    1.52774771  -1.44099890   1.27006455
H    1.31098705  -0.64608304   1.77952197
C    2.86484701  -1.30912306   0.81475368
H    3.09257355  -2.21280976   0.24293537
H    3.58992880  -1.23578839   1.64037814
H    3.00455539  -0.44118127   0.15147699
O   -2.51097464  -0.21935571   0.33969082
H   -2.71148294  -0.94681333  -0.26778354
C   -2.15348107  -0.78812323   1.58918497
H   -1.93085675   0.04497533   2.26139803
H   -1.25699013  -1.42456792   1.52578556
H   -2.96824257  -1.37905274   2.03611152
