42
Energy:   -217.63985265
O    1.64231529  -1.20472634  -1.13118216
H    1.89816112  -0.81607978  -0.28152338
C    2.74167797  -1.06503007  -2.01685729
H    2.43643405  -1.50788048  -2.96879997
H    3.64051215  -1.59586734  -1.66602080
H    3.00904514  -0.01255147  -2.20010823
O    2.10098524   0.11164583   1.32952782
H    1.72721303   0.96800966   1.07387452
C    2.89035160   0.31585149   2.49044753
H    3.30367679  -0.65853726   2.76469933
H    2.30304525   0.68992797   3.34362709
H    3.73043587   1.00656321   2.31737795
O   -2.68456287   1.29149398  -1.37093854
H   -2.18205020   0.48566430  -1.56210028
C   -3.31957164   1.69800429  -2.57262361
H   -3.88106405   2.60674341  -2.33937549
H   -4.02890600   0.94684210  -2.95390758
H   -2.60194206   1.93617813  -3.37328479
O    0.82797863   2.42986766   0.47288355
H   -0.08241895   2.50790570   0.79461261
C    0.78105124   2.38137932  -0.94414873
H    1.81460396   2.29349952  -1.28988145
H    0.34934006   3.29269722  -1.38675744
H    0.21977197   1.51229039  -1.32154421
O   -1.10343831  -0.99929916  -1.74124287
H   -0.15252356  -1.12501313  -1.60566853
C   -1.78273377  -1.93747188  -0.92214373
H   -2.85236875  -1.78206683  -1.08711492
H   -1.57808960  -1.79244616   0.15017415
H   -1.54505049  -2.98058637  -1.18328766
O    0.22963754  -1.86998581   2.19876600
H    0.87729715  -1.19625896   1.94371224
C    0.72764063  -3.12851014   1.77374457
H   -0.01395771  -3.87576862   2.06890870
H    1.68483470  -3.39034173   2.25123912
H    0.85634530  -3.18810742   0.68165455
O   -1.89975351   2.22834631   1.17014236
H   -2.32012621   1.99476221   0.32922112
C   -1.94158348   1.08230435   2.00523030
H   -1.46406985   1.36292623   2.94794834
H   -1.38869969   0.22838333   1.58342972
H   -2.96944399   0.75524234   2.22729009
