42
Energy:   -219.01088555
O    1.29027794  -1.77242457  -1.14599323
H    0.56152224  -1.72690818  -1.78259880
C    0.73348230  -2.06580196   0.12540053
H    1.56789064  -2.11344937   0.83036695
H    0.21191932  -3.03546744   0.14772225
H    0.03608802  -1.28802613   0.47394509
O    1.79174279   1.17191596   1.71092307
H    2.36145090   0.92966366   0.96582592
C    2.39736752   0.67703541   2.89449636
H    1.74274571   0.95862645   3.72375022
H    3.39046072   1.11561150   3.07941317
H    2.49633257  -0.41977043   2.89495097
O   -1.01923705  -1.28223703  -2.72162264
H   -1.21605133  -0.42492814  -2.31577924
C   -2.06815194  -2.17282091  -2.37641012
H   -1.83057054  -3.13337639  -2.84156972
H   -3.04808301  -1.84301160  -2.75553837
H   -2.15131674  -2.33103188  -1.28974999
O   -1.27183953   1.13572687  -1.25913444
H   -1.25577148   1.14610687  -0.29060083
C   -0.07568086   1.74644974  -1.71603243
H   -0.11019692   1.72635789  -2.80868524
H    0.82791098   1.20610692  -1.39303281
H    0.01455180   2.79649158  -1.39658364
O   -2.66447260  -1.16482255   1.17979099
H   -2.10256612  -0.40774499   1.40231729
C   -3.85640908  -0.66023064   0.59909469
H   -4.47770563  -1.52606148   0.35452821
H   -3.67211603  -0.09886826  -0.33025223
H   -4.42500188  -0.01557483   1.28749751
O    3.20529420   0.16104227  -0.49490127
H    2.61897754  -0.56366569  -0.75844335
C    4.22704129   0.26562626  -1.47348640
H    4.87835011   1.08643747  -1.16115489
H    3.83437935   0.50336773  -2.47452232
H    4.83940198  -0.64663911  -1.54807594
O   -0.98853390   1.10191757   1.57392600
H   -0.02928565   1.14112602   1.70326580
C   -1.55641412   2.23012639   2.21982899
H   -2.63702097   2.17028096   2.06428942
H   -1.20312607   3.18411356   1.79807862
H   -1.36763648   2.23873048   3.30475586
