42
Energy:   -217.89894677
O   -1.37069638   1.62270017   2.35318453
H   -0.59234830   1.05883859   2.47425330
C   -0.92289015   2.96747681   2.29335858
H   -1.81208084   3.58891066   2.15681158
H   -0.24388011   3.15227955   1.44626316
H   -0.41995758   3.28975746   3.21854578
O   -2.49632926   0.84336329  -0.07515704
H   -2.22705044   1.11211162   0.81573382
C   -3.64467459   1.59965811  -0.42423427
H   -3.93455678   1.28444619  -1.43026358
H   -3.44890472   2.68309420  -0.44908819
H   -4.49599619   1.41574892   0.24971401
O   -1.28085079  -1.49416365  -1.07970759
H   -1.74014566  -0.69289178  -0.78741513
C   -2.18537927  -2.57956011  -0.95212805
H   -1.65195993  -3.47388504  -1.28549259
H   -3.08169567  -2.46233719  -1.58113762
H   -2.50947229  -2.74306150   0.08758746
O    2.96005710  -0.59289000   0.55363595
H    2.54132116  -1.13342803  -0.13258713
C    4.20756639  -0.14547955   0.04759423
H    4.66566868   0.46170959   0.83305513
H    4.10149895   0.48224675  -0.85100842
H    4.89345489  -0.97459818  -0.18670598
O    0.84716702  -0.10643860   2.36699774
H    1.66455953  -0.20685278   1.85689014
C    0.20809331  -1.37226238   2.40952684
H   -0.71059835  -1.24110087   2.98770284
H    0.81900166  -2.14048792   2.90892432
H   -0.06765028  -1.74320817   1.40995592
O    1.46287320  -1.97541245  -1.37240852
H    0.50432325  -1.86503236  -1.28626038
C    1.75165153  -2.17204510  -2.74735450
H    2.83526608  -2.29460238  -2.82637613
H    1.45896586  -1.31251119  -3.37050286
H    1.27504435  -3.07643393  -3.15687101
O   -0.39077443   2.39477994  -1.29153262
H   -1.14044270   1.86039317  -0.99011672
C    0.78980251   1.63613460  -1.08361654
H    1.62428344   2.25276509  -1.42842609
H    0.79868431   0.69711324  -1.65888807
H    0.95905149   1.39515520  -0.02245631
