45
Energy:   -616.15955994
O   -2.61783561  -1.62905197   1.56692680
H   -1.78888011  -1.82767819   2.00237168
H   -2.47908381  -1.88961921   0.65638603
O   -2.70236615   0.97407450   2.31023935
H   -3.53642313   1.13164241   2.75267936
H   -2.75601488   0.06563828   2.01342747
O    2.47105536  -1.78231603  -0.74780337
H    2.20244980  -1.50926728  -1.62503041
H    2.74660387  -0.97250978  -0.31824698
O    1.08153492   2.55796799   1.89776270
H    1.45588703   3.24661587   2.44717733
H    0.71456748   1.92857160   2.51859031
O    0.03343049  -1.73642340   2.28566309
H    0.34289293  -2.54030038   1.86823447
H    0.05497790  -1.08052761   1.58883580
O    1.96344649   1.99838690  -2.37930791
H    1.01684245   2.14035055  -2.38366334
H    2.30740848   2.65519757  -2.98471831
O   -1.22129323  -0.50010143  -3.09105966
H   -1.36176335  -1.14988819  -2.40238181
H   -1.76138867  -0.80329527  -3.82085570
O    1.55087867  -0.66070217  -3.06578758
H    0.59825234  -0.64545792  -3.15799687
H    1.79387802   0.25564166  -2.93351083
O   -0.06277180  -0.02469092   0.18061914
H   -0.52026271   0.81490689   0.22544569
H    0.85690310   0.20949678   0.05577502
O   -0.19213241   0.79199692   3.49742899
H    0.01370353  -0.13500241   3.37686508
H   -1.10905142   0.87045165   3.23411124
O    2.47681216   0.92436996   0.10746632
H    2.42966235   1.38882611  -0.72817070
H    2.16325418   1.55835194   0.75243150
O   -1.36551692  -2.11175554  -0.89396299
H   -0.79961282  -2.84683124  -0.65806445
H   -0.91568092  -1.34149958  -0.54670921
O   -1.26475544   2.37352855   0.39733767
H   -0.51049682   2.65875318   0.91306307
H   -1.88341744   2.03443580   1.04425752
O    0.73974497  -3.59245673   0.28084782
H    1.16190006  -4.45000184   0.22953206
H    1.38636754  -2.98478001  -0.07809523
O   -0.71947363   2.16572677  -2.34704607
H   -1.06512327   2.32031632  -1.46792137
H   -1.02235383   1.28621414  -2.57277369
