45
Energy:   -616.41196702
O    1.47855706   2.15099911  -3.26651564
H    1.57349046   1.28696010  -3.66733492
H    0.68265678   2.08466113  -2.73890417
O   -0.22071491   0.55169171   2.41689985
H    0.01771882  -0.37127061   2.33017175
H    0.48945426   1.02479345   1.98323368
O    1.92126382  -0.51079040  -3.95698561
H    2.27211037  -0.87875449  -4.76799792
H    2.65990671  -0.52374585  -3.34832258
O    0.02950379  -1.08833308  -2.01478922
H    0.56256418  -1.05372754  -2.80906936
H   -0.19772061  -0.17539742  -1.83829727
O   -3.20824752  -2.07813754   2.41236186
H   -3.90543953  -1.43478811   2.28486020
H   -2.84445426  -2.21433859   1.53752725
O    3.43220174   2.29624889  -1.41754948
H    2.77483735   2.34336227  -2.11172830
H    4.00047428   3.05053955  -1.57357440
O   -2.26872586   0.80775672   0.62104650
H   -1.59436710   0.82065173   1.30024149
H   -3.09521620   0.83996455   1.10282261
O   -2.38200770  -0.02533785   4.10051267
H   -2.50353668  -0.89615949   3.72218447
H   -1.55968850   0.28749763   3.72347560
O    0.22706339  -2.09704622   1.86065476
H   -0.49210487  -2.10338476   1.22899925
H    0.00196477  -2.78451541   2.48751085
O   -0.38622353   1.50097192  -1.29392650
H   -1.19286256   1.46395143  -0.77992766
H    0.31183979   1.55648166  -0.64134845
O   -4.38510403   0.53765782   2.37970497
H   -3.75520581   0.49246292   3.09902235
H   -5.12983735   1.01712414   2.74263221
O    1.98064000  -1.26833028  -0.12642997
H    1.58402631  -1.71369898   0.62228638
H    1.31249520  -1.30790528  -0.81071660
O    1.66186609   1.35674774   0.49745928
H    2.34106761   1.82728629   0.01422992
H    1.85645954   0.43189191   0.34577893
O    3.81361527  -0.39069885  -2.04319049
H    3.39839217  -0.82301109  -1.29691456
H    3.85908156   0.53166804  -1.79138899
O   -1.76247726  -1.79960349   0.02869127
H   -2.02176067  -0.88673112   0.15386318
H   -1.29999299  -1.80497354  -0.80934889
