45
Energy:   -622.14865239
O    0.02906268  -2.16787618  -0.92471016
H   -0.61168082  -2.19309888  -1.63537424
H    0.61494411  -1.44690109  -1.15529577
O   -1.20175678   1.28145217   1.42947150
H   -1.39230415   0.35269324   1.29782648
H   -1.86399786   1.73818061   0.91075411
O    1.80996195  -2.75554242   1.15139615
H    1.26750390  -2.53751434   1.90931097
H    1.19369605  -2.80133161   0.42040262
O    3.55405764  -0.84230311   0.40963998
H    4.43000417  -1.22412856   0.35343619
H    2.99958681  -1.55832393   0.71965310
O   -2.84713323   2.25866673  -0.48112401
H   -2.27932850   2.49310481  -1.21520058
H   -3.16613140   1.38188253  -0.69494982
O   -0.18497580   0.40074675  -3.51897647
H   -0.46729727   1.26730097  -3.22638422
H    0.60989967   0.22465618  -3.01559098
O   -1.84527417  -1.62458607  -2.88457884
H   -1.30522508  -0.89478443  -3.18784176
H   -2.19053249  -2.01706923  -3.68644261
O    1.68013389  -0.08012908  -1.48405511
H    1.37500933   0.71669065  -1.05022429
H    2.45862905  -0.33883703  -0.99085401
O    0.79778625   2.13952719  -0.19584661
H    0.06992401   1.86165156   0.36024110
H    1.55985915   2.12896894   0.38326069
O    0.66626000   0.83207950   3.37538772
H   -0.02634125   1.09220171   2.76803956
H    0.62164619   1.47744645   4.08089674
O    2.72268300   1.51673849   1.61845483
H    3.10899502   0.71045223   1.27655230
H    2.12298075   1.22342811   2.30442720
O   -1.59308288  -1.38125604   1.09703659
H   -1.15304415  -1.68431974   1.89123440
H   -1.03954768  -1.69433794   0.38162737
O   -0.81685701   2.81445218  -2.30763980
H   -0.68455278   3.70355984  -2.63660030
H   -0.17948018   2.72329993  -1.59935038
O    0.15533717  -1.86648144   3.19689732
H    0.07794967  -2.24929233   4.07079597
H    0.38959706  -0.95201769   3.35535930
O   -3.34251093  -0.40859820  -0.88950008
H   -2.97007598  -0.84396575  -0.12270210
H   -2.92704726  -0.84031506  -1.63598674
