45
Energy:   -618.00315644
O   -1.77087863  -0.56715926   2.37310307
H   -2.62296369  -0.56396249   2.80919099
H   -1.81671864   0.15925107   1.75144514
O    0.11428365   2.71649782   1.97292871
H    0.19189414   3.42164603   2.61555959
H    0.35266292   1.92485757   2.45533194
O   -1.91833622   1.46397151   0.53488876
H   -1.48929635   1.35447031  -0.31373727
H   -1.35209633   2.06918685   1.01376099
O   -2.46530243  -2.21435747   0.34654390
H   -2.78076575  -3.06111344   0.66232719
H   -2.19679102  -1.74790700   1.13809771
O    3.43271086   1.23271968  -2.20437464
H    2.96274777   1.66708856  -1.49255288
H    2.76426210   1.07213058  -2.87042213
O   -4.43732632  -0.53193759   2.98217799
H   -4.54093296  -0.34836665   2.04847610
H   -5.25056272  -0.22065215   3.37964469
O    1.99701974  -0.75101830   0.81050460
H    2.77116604  -1.00111196   0.30614112
H    1.26667560  -1.16391984   0.34969923
O    1.86328872  -2.03230290  -2.76270106
H    1.15514519  -2.10787207  -2.12312785
H    2.65116290  -1.90429350  -2.23440217
O   -0.26716199   0.97232249  -1.63395706
H    0.09512885   0.87383467  -2.51445541
H    0.44529718   1.35626866  -1.12286108
O    0.73613350   0.33623097   3.06054553
H   -0.11372272  -0.10107952   3.00824073
H    1.29254145  -0.14669435   2.44946028
O   -0.04488000  -1.61147898  -0.80603512
H   -0.22795941  -0.73046878  -1.13243181
H   -0.88996806  -1.93052038  -0.48937979
O    1.75772413   1.82106252  -0.05862514
H    1.90904614   0.95657043   0.32345721
H    1.29963624   2.30904257   0.62567217
O   -4.27465688  -0.06597835   0.31524699
H   -3.78186392  -0.85782895   0.09993428
H   -3.62558554   0.63680446   0.28308238
O    1.33134512   0.38332524  -3.82605857
H    1.51174001  -0.51504637  -3.54925904
H    1.27889876   0.33440010  -4.78056763
O    3.94221982  -1.18042691  -1.12228777
H    4.87810692  -1.37916830  -1.15142604
H    3.86901614  -0.31143770  -1.51691522
