45
Energy:   -622.42888050
O   -0.86133333  -1.70824505  -0.20430517
H   -1.06049237  -1.00001981   0.40805464
H   -0.55320394  -2.42521524   0.34998886
O   -1.27170753   0.33294493   1.53567044
H   -0.54295145   0.89564930   1.27392585
H   -2.02034486   0.66323895   1.03900168
O    2.77161591  -2.29662541   1.00467889
H    3.58452913  -2.67505952   0.66972879
H    2.47212814  -1.71469957   0.30617962
O    2.39639628  -0.81970817   3.31952305
H    2.62628380  -1.36431435   2.56667001
H    1.47173614  -1.00883113   3.47910993
O   -3.18191985   1.00455164  -0.27887707
H   -2.90714237   1.70822257  -0.86673453
H   -3.27822098   0.24063013  -0.84754381
O    0.46856774   2.94018095  -1.77404379
H    0.80920287   2.24799519  -2.34068162
H    0.66587739   2.64222447  -0.88605579
O    1.10161208   0.65139042  -3.22314308
H    0.16654117   0.53151419  -3.38898616
H    1.50208195   0.64663375  -4.09252970
O    1.55901215  -0.66388528  -0.84108404
H    1.51649082  -0.27702748  -1.71559237
H    0.70242302  -1.07285477  -0.71767066
O    0.93292772   1.59857644   0.57222080
H    1.27357892   0.83179523   0.11153090
H    1.57454631   1.76888700   1.26182341
O   -0.31676008  -1.37069749   3.46172973
H   -0.71318688  -0.72700277   2.87458857
H   -0.86987157  -1.35575777   4.24280356
O    2.72992827   1.76352981   2.60466652
H    2.66176029   0.86056194   2.91488257
H    3.24818057   2.20905147   3.27485817
O   -2.93275498  -1.25116372  -1.89967864
H   -3.47590950  -2.03145044  -2.01088857
H   -2.21065812  -1.53901661  -1.34115498
O   -2.19061932   2.79728210  -2.14466307
H   -2.51658377   3.66524747  -2.38260243
H   -1.25836907   2.92986350  -1.97272267
O    0.27041478  -3.36034607   1.60373325
H    1.19317956  -3.16575354   1.43981021
H    0.04131483  -2.81841787   2.35875569
O   -1.56923840   0.49921850  -3.55566396
H   -2.07622337  -0.17288115  -3.10016407
H   -1.88158559   1.32589210  -3.18785717
