45
Energy:   -619.18202610
O   -0.82125352  -1.84039753  -0.05851066
H   -0.46387373  -2.47682067   0.56074463
H   -0.06131557  -1.53445811  -0.55361391
O   -0.85800945   0.28235412   1.63605974
H   -1.65479756   0.75820960   1.40170503
H   -0.86294682  -0.48827023   1.06830487
O    2.82213212  -2.36129394   0.56271617
H    3.54120505  -2.81851957   0.12669932
H    2.42693652  -1.82496575  -0.12460061
O    3.05498985  -0.73486160   2.80030788
H    3.07475424  -1.32484183   2.04680635
H    2.18954446  -0.86822755   3.18689506
O   -3.08640783   1.30400111   0.45712793
H   -2.91220672   1.95238424  -0.22513678
H   -3.29769185   0.50258165  -0.02174341
O    0.22564755   2.65584102  -2.14495837
H   -0.69178067   2.86796027  -1.97302018
H    0.58565015   2.43387964  -1.28625987
O    0.22712901   0.30526902  -3.43704953
H    0.27069276   1.17210540  -3.03340520
H    0.58217540   0.43211166  -4.31687045
O    1.41490922  -0.76218448  -1.18844538
H    1.10429805  -0.52390598  -2.06193030
H    1.41670980   0.06179464  -0.70132423
O    1.11257097   1.54272953   0.21085816
H    0.41974306   1.24011045   0.79792121
H    1.84587966   1.74802682   0.79080923
O    0.43073183  -1.11996781   3.60286251
H   -0.06303685  -0.53777228   3.02539156
H    0.03494860  -0.99470960   4.46535765
O    3.19354757   1.81964127   1.93742775
H    3.20801010   0.92840795   2.28632008
H    3.89562867   2.27189245   2.40517003
O   -3.23488419  -1.04832219  -1.04455442
H   -3.86412421  -1.76823803  -0.99972120
H   -2.41665443  -1.42418232  -0.71980672
O   -2.50522942   2.82584781  -1.78546008
H   -2.58032997   2.05357976  -2.34599001
H   -3.08802212   3.47083263  -2.18618332
O    0.50569234  -3.25502606   1.81686974
H    1.37315275  -3.11336784   1.43782193
H    0.46921576  -2.65661590   2.56306448
O   -2.52679864   0.53443674  -3.19429010
H   -2.80818636  -0.09844808  -2.53360136
H   -1.60364579   0.33054587  -3.34412059
