45
Energy:   -618.97807745
O   -0.69449178  -1.84103352   0.08557897
H   -0.18133099  -2.36433106   0.70125546
H   -0.06605818  -1.57593858  -0.58600701
O   -0.78628962   0.50172388   1.47222298
H   -1.60691259   0.88738317   1.16550371
H   -0.76444464  -0.36686315   1.07058731
O    3.08344464  -2.16501574   0.00858098
H    3.32044459  -1.38794284   0.51476334
H    2.54873950  -1.82899432  -0.71073250
O    2.04564877  -1.15362854   3.69944320
H    2.28274800  -1.58028070   4.52284088
H    1.26583374  -0.64041207   3.91093604
O   -3.09534536   1.31294908   0.33971501
H   -3.26872807   0.47641851  -0.09201047
H   -2.91393855   1.92017575  -0.37764067
O    0.29223158   2.66835381  -2.10040207
H    0.39641536   1.97518594  -2.75224246
H    0.77355580   2.35283973  -1.33554280
O    0.20715768   0.44577684  -3.77921568
H   -0.73514823   0.36377909  -3.63235592
H    0.31145416   0.35271697  -4.72615493
O    1.21893187  -0.83031889  -1.56729389
H    0.93988162  -0.50432994  -2.42291881
H    1.33485001  -0.04231889  -1.03639764
O    1.40034006   1.32216814   0.07558568
H    0.62668181   1.15590145   0.61413944
H    2.13602018   1.03853259   0.61831718
O   -0.20493283   0.28485774   4.11864137
H   -0.47241689   0.40682823   3.20770377
H   -0.92511755   0.65177331   4.63141695
O    3.34585082   0.09026151   1.61813240
H    2.92621631  -0.30481097   2.38236827
H    4.17870761   0.42675794   1.94881588
O   -3.12209075  -1.14456532  -0.97116847
H   -3.73901947  -1.87481202  -0.92248001
H   -2.30933994  -1.49213753  -0.60393351
O   -2.38909916   2.81689209  -1.86563924
H   -2.66495883   3.70128494  -2.10643494
H   -1.43316083   2.84420511  -1.90647732
O    1.13665293  -2.93600936   1.76450332
H    1.39766574  -2.39225412   2.50776263
H    1.85951357  -2.85496816   1.14230025
O   -2.41609394   0.38154842  -3.17762306
H   -2.71164677  -0.21716610  -2.49175040
H   -2.54038824   1.25417043  -2.80437566
