45
Energy:   -616.13780499
O   -1.70284580   3.72488384   0.04571794
H   -2.24124724   3.93562412   0.80857066
H   -0.86797834   3.43546264   0.41377166
O    2.14556751  -0.97201654   0.76738162
H    1.97232762  -0.25979859   0.15177997
H    2.05901991  -0.56892806   1.63124563
O   -2.12502691   1.14060730   1.94116213
H   -2.57273965   1.08130107   1.09720247
H   -1.26515205   1.50518960   1.73157489
O    2.68663271  -0.50046738  -3.05267409
H    1.86703367  -0.92631656  -3.30395427
H    3.11198430  -0.28927989  -3.88376236
O    3.11121961  -2.59370160  -1.26903630
H    3.14837672  -1.90181528  -1.92944869
H    2.98582283  -2.12915447  -0.44156820
O    1.38141156   0.90608617  -1.03568950
H    1.95210444   0.64161064  -1.75721163
H    0.51597961   0.57977064  -1.28222058
O   -0.89141973  -1.13127060   2.85030104
H   -1.48584748  -0.41859357   2.61582517
H   -0.82585151  -1.66044578   2.05537571
O   -1.00110494  -0.27424716  -1.56267085
H   -0.92860972  -0.92209775  -0.86176722
H   -1.74518208   0.27175586  -1.30877765
O    0.34019329   2.13821337   1.22676659
H    0.77979469   1.85893001   0.42365809
H    0.81331033   1.68980227   1.92770853
O   -3.18385095   3.62720114   2.37049474
H   -2.89395064   2.71498602   2.37779036
H   -3.39527500   3.81913968   3.28410916
O    0.74039844  -3.81680803  -1.65476937
H    1.62526930  -3.47970169  -1.51478825
H    0.86014504  -4.75702073  -1.78853293
O    1.36804639   0.31648792   3.07448966
H    0.57799564  -0.22321058   3.10236789
H    1.69974155   0.30294060   3.97227952
O   -0.27194248  -2.13168403   0.31780463
H   -0.09425599  -2.85978438  -0.27761895
H    0.59166456  -1.77406855   0.52402270
O    0.34094398  -1.75463202  -3.47450988
H    0.39581660  -2.57098140  -2.97772567
H   -0.27651969  -1.21457191  -2.98124977
O   -2.95581231   1.43917879  -0.67213198
H   -2.53187361   2.28864100  -0.54997725
H   -3.80470910   1.64844085  -1.06176703
