45
Energy:   -621.32240807
O   -0.50549267  -2.11107255   0.36176562
H    0.08682597  -2.76335233   0.73582654
H    0.05439829  -1.56947134  -0.19449159
O   -1.09050952   1.77074792   1.98505526
H   -1.43455139   2.39818900   2.62081050
H   -1.80772494   1.63981894   1.36482023
O    3.28170785  -1.70987029   0.21282881
H    3.40160075  -1.00071939   0.84446362
H    2.65835262  -1.36094374  -0.42428215
O    1.65274079  -1.51887477   3.40393659
H    1.69783303  -2.31760978   2.87836936
H    0.73243074  -1.25841561   3.36622318
O   -3.02015672   1.31815060   0.18159261
H   -3.01990333   0.41872451  -0.14591996
H   -2.89573645   1.85786169  -0.59908875
O    0.28182690   2.82863936  -1.90453239
H    0.52010202   2.13327647  -2.51766147
H    0.69583962   2.57381707  -1.07997740
O    0.53402895   0.56528424  -3.50937633
H   -0.40391210   0.37730795  -3.47526851
H    0.77915067   0.39909254  -4.41961120
O    1.16269203  -0.54668327  -1.09279413
H    1.01136032  -0.24456480  -1.98836936
H    1.16929250   0.25346411  -0.56748237
O    1.20099727   1.66518941   0.47745274
H    0.43154707   1.75107234   1.04030473
H    1.88953874   1.34390857   1.05962206
O   -0.90027161  -0.84415810   2.78792717
H   -1.00319277   0.08213793   2.56971915
H   -0.85909884  -1.28722001   1.94044101
O    3.05271449   0.34935939   2.07237378
H    2.55196697  -0.26669241   2.60712976
H    3.73305354   0.67892022   2.65953668
O   -2.78806359  -1.23043524  -0.88678179
H   -3.48610064  -1.87788791  -0.78788198
H   -2.03147959  -1.62508791  -0.45312091
O   -2.40378731   2.71050845  -2.10745181
H   -2.72270255   3.54545559  -2.45007141
H   -1.45996910   2.83618211  -2.00924199
O    1.67675065  -3.49068345   1.44305114
H    2.08191238  -4.35782074   1.45524675
H    2.30369343  -2.93942357   0.97477007
O   -2.10690990   0.18126144  -3.18945654
H   -2.36903995  -0.38567484  -2.46412700
H   -2.34919048   1.06249577  -2.90492528
