45
Energy:   -620.39595169
O   -0.94490470  -1.52614065   0.67963506
H   -0.59591215  -1.91083734   1.48365279
H   -0.17798606  -1.40182597   0.12051655
O   -1.09099309   1.07953971   1.47357821
H   -1.87001156   1.43537801   1.04609582
H   -1.09241698   0.15110029   1.24070472
O    3.37950860  -1.26887649   0.75930613
H    3.35506757  -0.41790400   1.19689077
H    2.70718660  -1.20912794   0.08059774
O    0.20663372  -2.28902034   3.06696163
H    1.06118885  -2.67075112   2.86634010
H   -0.12058586  -2.80647524   3.80276026
O   -3.20684403   1.65586218  -0.13151413
H   -3.33432823   0.74343025  -0.39122086
H   -2.93142024   2.09775378  -0.93469866
O    0.44556602   2.29379697  -2.64563702
H   -0.47756142   2.54342022  -2.60373458
H    0.73675421   2.29732335  -1.73380982
O    0.40380642  -0.27333909  -3.43717887
H    0.47338112   0.65814797  -3.22807823
H    0.90071296  -0.37483333  -4.24897604
O    1.18145744  -0.79824078  -0.85147052
H    0.97674650  -0.77781361  -1.78630099
H    1.18903474   0.12175204  -0.58729701
O    1.09391412   1.77449851   0.00370359
H    0.29710760   1.67998077   0.52562083
H    1.80538550   1.73681185   0.64293755
O    0.75691935   0.40481297   3.43523263
H    0.59488528  -0.53838256   3.41628523
H    0.02277454   0.78418795   2.95218204
O    2.90554925   1.16782272   1.99967113
H    2.19635567   0.90051771   2.58432859
H    3.48100249   1.70069805   2.54842363
O   -3.13512021  -1.02976282  -0.89098347
H   -3.81027890  -1.68882859  -0.72966111
H   -2.39924789  -1.30069277  -0.34205656
O   -2.30420503   2.55265569  -2.58603477
H   -2.37860858   1.66358626  -2.93280776
H   -2.83622663   3.08591738  -3.17664194
O    2.65091602  -3.25208817   2.43292047
H    3.32919447  -3.92697451   2.40648926
H    2.96664053  -2.57113584   1.83890549
O   -2.34991741  -0.02415319  -3.34978637
H   -2.63354629  -0.47878035  -2.55662771
H   -1.42336224  -0.24822113  -3.43650965
