45
Energy:   -621.27110200
O   -0.54470123  -1.92836468  -0.27347432
H   -0.07624303  -2.55706234   0.27563224
H    0.14542503  -1.45070686  -0.73369230
O   -0.89831176  -0.02001482   1.62658320
H   -1.76126708   0.34705057   1.43474219
H   -0.78562724  -0.71809351   0.98143191
O    3.14703292  -1.90776067   0.31891941
H    2.66121216  -1.37218161  -0.30826884
H    3.92549734  -2.19167699  -0.16026376
O    3.13745894  -0.53274657   2.73056309
H    2.30409294  -0.84051168   3.08695276
H    3.24385584  -1.02031515   1.91374706
O   -3.27035991   0.75461771   0.54379466
H   -3.19664253   1.46739238  -0.09083110
H   -3.37861284  -0.03217903   0.00950630
O   -0.23831283   2.90906096  -1.81549084
H    0.01446930   2.24482612  -2.45668123
H    0.18693088   2.63299239  -1.00358827
O    0.20281170   0.69865527  -3.45696028
H   -0.73017834   0.50492349  -3.36624411
H    0.34462057   0.75909665  -4.40166602
O    1.48159082  -0.38154280  -1.25975094
H    1.16216092  -0.08887708  -2.11329834
H    1.35969309   0.37466583  -0.68571149
O    0.85505161   1.67991322   0.38632071
H    0.21747176   1.21010438   0.92391110
H    1.54605096   1.93201587   0.99885317
O    0.60681360  -1.40517517   3.44729292
H    0.20044086  -1.43747119   4.31334719
H    0.02422576  -0.84964700   2.92940132
O    2.86202881   2.09377498   2.17249576
H    3.02030960   1.18174739   2.41618558
H    3.50291265   2.59231663   2.67940402
O   -3.10515227  -1.49423578  -1.10693817
H   -3.59740877  -2.31495396  -1.12529712
H   -2.22245589  -1.74976335  -0.83901169
O   -2.88884794   2.58703749  -1.50629691
H   -3.32248352   3.42894616  -1.64551551
H   -1.95460323   2.78426193  -1.57353669
O    1.01837533  -3.29733371   1.44639348
H    0.88952437  -2.79535998   2.25116156
H    1.84768356  -2.97549423   1.09298289
O   -2.44129150   0.34241541  -3.06033831
H   -2.73342136  -0.36285093  -2.48285117
H   -2.72042113   1.14482598  -2.61936691
