45
Energy:   -618.74421639
O    1.25223593  -0.32738548  -2.33144718
H    1.04403378   0.03721306  -3.19165158
H    0.50162596  -0.88153956  -2.11760196
O   -0.09485643  -1.81164794   1.04467976
H    0.03255089  -2.12119698   1.94143982
H    0.75441892  -1.44877151   0.79311681
O   -1.32939566   0.57861193   1.47777936
H   -1.82409086   0.78360774   0.68437831
H   -0.99850557  -0.30766869   1.33200466
O    0.55322939  -2.16060924   3.70367173
H    0.71765118  -2.89597949   4.29394957
H    1.42083702  -1.79826063   3.52424950
O    0.41032504   2.15769491  -1.54689541
H    0.72431421   2.34104092  -0.66144248
H    0.81667033   1.32224964  -1.77743077
O    1.05324334   1.86511917   1.13697788
H    1.44008319   1.97239358   2.00593069
H    0.17744118   1.51751372   1.30542038
O    1.93306945   1.61178429   3.74079365
H    1.08216376   1.24474752   3.98053388
H    2.14894434   2.20640715   4.45916232
O   -0.44098860   0.40176669   4.13605929
H   -0.97132750   0.54189897   3.35162609
H   -0.22443545  -0.53039910   4.11597176
O   -2.64095659   0.67658940  -3.92797880
H   -2.65059815  -0.27929690  -3.97717507
H   -3.35867070   0.95346179  -4.49759269
O   -2.49591139  -2.02867233  -3.82205827
H   -2.19989469  -2.80381556  -4.29929923
H   -2.00640390  -2.05162426  -2.99981288
O    2.17240757  -0.48423689   0.32611932
H    1.87688778   0.39577123   0.55954083
H    2.15166462  -0.49843186  -0.63075062
O   -1.04485303  -1.57917134  -1.53646185
H   -0.81980132  -1.89744099  -0.66222618
H   -1.44641270  -0.72368264  -1.38440672
O    2.84103255  -0.91709670   3.01961711
H    2.86817394  -0.85445527   2.06485471
H    2.70848897  -0.01648851   3.31553758
O    0.06957576   1.24328726  -4.27234932
H    0.16736998   1.99211673  -3.68419750
H   -0.87029424   1.06200279  -4.27583609
O   -2.00072260   0.95453057  -1.23475120
H   -2.41685535   0.97091125  -2.09660795
H   -1.21311830   1.48855236  -1.33834678
