45
Energy:   -618.29268969
O   -2.20197166  -2.70503169  -2.41465969
H   -1.79239350  -3.09845131  -1.64414131
H   -2.66077698  -1.93610789  -2.07630231
O   -1.14980202   0.99114712  -3.14019860
H   -0.78198639   0.16021743  -3.44102972
H   -1.35500686   1.46793533  -3.94443478
O   -0.26039352  -1.51326795  -3.81344691
H   -0.97842945  -1.97013413  -3.37534928
H   -0.15277702  -1.97628674  -4.64426827
O   -1.14597584   1.99913056   2.99959406
H   -0.49252199   1.34479392   3.24672455
H   -1.55860466   2.25023570   3.82598108
O    0.65942144   0.05150627   3.45965876
H    0.34661497  -0.67697220   2.92327916
H    1.52883890   0.24970584   3.11171902
O    0.38276015   3.52451207   1.25648405
H   -0.18793674   3.11821036   1.90875379
H    0.25528432   2.99995897   0.46602481
O   -0.19191748  -1.58198713   1.37575277
H    0.52644099  -1.20923088   0.86463074
H   -0.42185198  -2.38829801   0.91399013
O   -0.58781842  -3.67009361  -0.37728013
H   -0.41717405  -4.60684593  -0.27926261
H    0.15544932  -3.34245705  -0.88367839
O    1.74223079  -0.35718901  -0.08973071
H    2.30309878  -0.02103649   0.60931180
H    1.21962093   0.39719121  -0.36179918
O    2.97395102   3.29677425   1.96323147
H    2.05867053   3.43746129   1.72094938
H    3.37293149   4.16512564   1.90834712
O    3.04060078   0.60013057   2.14785695
H    3.06467444   1.55527642   2.08998898
H    3.89614848   0.35960519   2.50340936
O   -1.94301101   0.44204123   0.85896783
H   -1.86711237   1.00746341   1.62758282
H   -1.44513930  -0.34268968   1.08821228
O   -0.04955377   1.60686879  -0.68943315
H   -0.35510138   1.52736631  -1.59306575
H   -0.75815369   1.23668218  -0.16304939
O    1.37351600  -2.49982263  -1.80603965
H    0.92624851  -2.10730831  -2.55578370
H    1.66565045  -1.75323992  -1.28306395
O   -3.08971093  -0.26517633  -1.57483550
H   -2.52689721   0.27930758  -2.12529879
H   -2.87567634  -0.00308603  -0.67944189
