45
Energy:   -616.53151977
O    0.09103506  -1.83481284  -0.98445167
H   -0.44221439  -1.67354800  -1.76282853
H   -0.53515517  -1.83554557  -0.26049235
O   -1.33691194   1.04713281   1.03210212
H   -0.60203936   1.54606224   0.67536191
H   -1.97761672   1.02224259   0.32139142
O    2.12895993  -2.33104849   0.87639865
H    1.59950392  -2.36027404   1.67330143
H    1.49201816  -2.37614972   0.16330475
O    3.66962353  -0.16717209   0.48061931
H    3.18152792  -0.96504609   0.68406856
H    4.55098037  -0.47304724   0.26641761
O   -2.83457704   0.69902180  -1.23532242
H   -2.40423631   0.15769269  -1.89713924
H   -3.47001674   0.11394378  -0.82285189
O    0.29131570   1.06861132  -3.72861994
H    0.99477328   0.86658116  -3.11172198
H   -0.18048703   1.79684174  -3.32449807
O   -1.44515394  -0.85104540  -3.05598885
H   -0.83877135  -0.18953564  -3.38906068
H   -1.86216249  -1.21034020  -3.83908716
O    1.76404341   0.28317759  -1.48138681
H    1.20227766  -0.47165776  -1.30567487
H    2.53701613   0.13932431  -0.93544609
O    0.74247674   2.35894302  -0.07170574
H    1.36139463   2.41757486   0.65612308
H    1.10295202   1.67738664  -0.63895376
O    0.37540428   0.56544402   3.21488479
H    1.14249430   1.03825230   2.89199614
H   -0.34084369   0.85607706   2.65030253
O    2.52418945   1.83041144   1.99459124
H    2.99561700   1.14876029   1.51569709
H    3.21177510   2.35270938   2.40770464
O   -1.55525419  -1.65734324   1.17594080
H   -0.98310704  -1.96607852   1.87848049
H   -1.46391310  -0.70466824   1.19323247
O   -1.13062686   2.78897277  -2.15004150
H   -1.86357613   2.26780726  -1.82231642
H   -0.55316966   2.89318388  -1.39379083
O    0.41936913  -2.12131289   3.04593603
H    0.43076060  -2.50385358   3.92329838
H    0.44839062  -1.17635457   3.19574717
O   -4.11941849  -1.24516751   0.21572400
H   -3.30035112  -1.56270216   0.59589795
H   -4.79139390  -1.49633934   0.84943814
