45
Energy:   -616.23047742
O   -0.25782086  -1.84034215   0.69901318
H   -0.26889235  -1.03199806   1.21154523
H    0.42601240  -2.37279016   1.10534190
O   -2.30126676   1.83727474   2.62490838
H   -2.81191006   1.51590169   1.88181039
H   -2.95536403   2.16849803   3.24027797
O    3.67918744  -1.55841576   0.10321471
H    3.01251769  -1.38782975  -0.56213008
H    3.85736845  -0.70105312   0.48975406
O    2.25715248  -0.45939636   3.22704957
H    2.20487701  -1.36107080   2.91006010
H    1.40547482  -0.07943774   3.01139137
O   -3.58742265   0.85719685   0.46434156
H   -3.33636574   1.39005525  -0.29015443
H   -3.36585804  -0.03857082   0.20989852
O   -0.04568226   2.28475995  -2.33875176
H   -0.95708248   2.38382372  -2.06349216
H    0.44997848   2.25247994  -1.52051569
O   -0.02271800  -0.13846537  -3.49706496
H    0.00259117   0.75960668  -3.16682582
H    0.32523572  -0.07693799  -4.38665725
O    1.38439221  -0.92853022  -1.28924571
H    0.91315482  -0.78683310  -2.11027500
H    0.73598640  -1.32179264  -0.70516830
O    1.41509323   1.50603204  -0.08252786
H    1.43296160   0.67521186  -0.55755459
H    2.25282354   1.53634267   0.37955552
O   -0.01332841   0.50779511   2.02909989
H   -0.77662076   1.01694836   2.30182612
H    0.38418763   1.02699075   1.33006574
O    3.69946343   0.90282138   1.40781050
H    3.24049587   0.46661803   2.12565956
H    4.41980748   1.36926257   1.83180215
O   -2.75268819  -1.65113489  -0.41868872
H   -3.25317613  -2.43857134  -0.20494234
H   -1.89608405  -1.79464994  -0.01636469
O   -2.76620748   2.12772093  -1.83079697
H   -2.80465548   1.27639190  -2.26667825
H   -3.39689141   2.66910220  -2.30553473
O    2.07600327  -2.86289241   1.82644862
H    2.69965102  -2.48111055   1.20876105
H    2.47342288  -3.69417246   2.08579972
O   -2.69623013  -0.34746583  -2.86913815
H   -2.73079207  -0.89992519  -2.08822460
H   -1.78787422  -0.40684160  -3.16510422
