45
Energy:   -622.73153039
O   -0.82702940  -1.84909861   0.21661873
H   -1.01171563  -1.10547030   0.79032578
H   -0.26467894  -2.42121234   0.73880615
O   -1.22373235   0.35131948   1.73681360
H   -0.59549219   0.93678213   1.31399018
H   -2.07117596   0.60345435   1.37007229
O    3.09452207  -2.06662947   0.27104068
H    2.55534887  -1.56172871  -0.33772802
H    2.46442917  -2.50420482   0.84352877
O    4.58467631  -0.25244113   1.60122853
H    4.10321491  -0.93209151   1.12952720
H    5.49456041  -0.36935117   1.32796162
O   -3.48719073   0.78267018   0.30127999
H   -3.54340018  -0.03419775  -0.19450133
H   -3.38501091   1.46163499  -0.36565174
O   -0.29516805   2.83985551  -1.74964579
H   -0.01650653   2.16563491  -2.36932812
H    0.13597425   2.60383768  -0.92827880
O    0.17881520   0.60514229  -3.33796246
H   -0.75693393   0.40389837  -3.34827242
H    0.44117584   0.57382351  -4.25797217
O    1.20788747  -0.56942208  -1.07738057
H    0.91684097  -0.24661336  -1.93021016
H    0.46285281  -1.06856321  -0.74269663
O    0.82964369   1.63028886   0.47598617
H    1.07166999   0.87908644  -0.06563182
H    1.47619513   1.63550142   1.18180194
O    0.77538543  -0.72758713   3.32731386
H    1.44333348  -0.05829023   3.17858956
H   -0.03281005  -0.33849140   2.99316354
O    2.56920486   1.25545691   2.59204384
H    3.31650721   0.76012100   2.25676278
H    2.95044354   1.86978411   3.21933246
O   -3.16986421  -1.56163960  -1.16712694
H   -3.69272435  -2.36291825  -1.13881385
H   -2.35538061  -1.79061108  -0.71944359
O   -2.96954657   2.52327580  -1.77970157
H   -3.37930922   3.36612486  -1.97446262
H   -2.03354513   2.71730233  -1.72983328
O    1.05011060  -2.99422146   1.89798681
H    1.09658542  -3.73734938   2.49951223
H    0.99302747  -2.22732490   2.46793682
O   -2.47448518   0.19468561  -3.19360794
H   -2.76468987  -0.48317062  -2.58326049
H   -2.77640857   1.01467415  -2.80284854
