45
Energy:   -616.65233507
O   -0.68520221  -2.00278136  -0.22040620
H   -0.28774099  -2.53086420   0.47197009
H    0.05684246  -1.67784229  -0.73032399
O   -0.90067128   0.16821525   1.39935569
H   -1.70903593   0.58845566   1.10579746
H   -0.82966550  -0.61898462   0.85944236
O    2.83602974  -1.78300577   0.76768390
H    3.10596862  -0.93860881   1.12873600
H    2.52764825  -1.57895706  -0.11520728
O    2.46093459  -0.13215872   4.23494215
H    2.85961697  -0.85318198   4.72218917
H    1.54705646  -0.39416553   4.12353735
O   -3.12497805   1.06987283   0.15141133
H   -2.91952267   1.75106771  -0.48889599
H   -3.24973397   0.27824748  -0.37203600
O    0.35354449   2.66618602  -2.16714473
H   -0.57778159   2.83302153  -2.02212924
H    0.68854739   2.41196402  -1.30727493
O    0.41032683   0.44841338  -3.68581266
H    0.44007144   1.27867016  -3.21039621
H    0.85234317   0.63072381  -4.51503899
O    1.41533044  -0.75713145  -1.41998312
H    1.15702571  -0.48213258  -2.29969111
H    1.38897699   0.04610043  -0.90002554
O    1.18013199   1.43373004   0.17453877
H    0.43105218   1.11082031   0.67537866
H    1.92625215   1.33038377   0.76517918
O   -0.09056112  -0.99794854   3.71766666
H   -0.42423833  -0.50092231   2.97076888
H   -0.84667067  -1.09880486   4.29590381
O    3.28396647   0.74883861   1.81731027
H    3.00942034   0.50586634   2.70151655
H    4.11394376   1.20915800   1.94171126
O   -3.01535516  -1.23785551  -1.41886493
H   -3.61893933  -1.97833746  -1.47890222
H   -2.22362975  -1.60487454  -1.02554606
O   -2.39900743   2.72760609  -1.93752755
H   -2.44143542   1.98395820  -2.53870932
H   -2.97596633   3.38447616  -2.32723512
O    0.65764861  -2.98891308   1.91405511
H    1.50448608  -2.67847656   1.59354409
H    0.44674822  -2.40301792   2.64102123
O   -2.34688136   0.51266187  -3.45631848
H   -2.59028840  -0.17902588  -2.84105195
H   -1.41586008   0.36741258  -3.62464517
