45
Energy:   -621.05700523
O   -0.62972861  -2.06476156  -0.02569892
H   -0.12203554  -2.58419176   0.59773661
H    0.02567391  -1.56039110  -0.50766347
O   -1.32215182  -0.00869056   1.63181905
H   -2.18059548   0.28891695   1.33059469
H   -1.13161703  -0.77646119   1.09287879
O    3.11116502  -1.93666879   0.29563260
H    2.56722739  -1.45379520  -0.32661879
H    2.48566406  -2.40931351   0.84480231
O    4.50982005  -0.11636119   1.71463734
H    4.06433998  -0.79500184   1.20746260
H    5.43313933  -0.20827225   1.47955073
O   -3.59218521   0.60793317   0.27709503
H   -3.43708499   1.35590862  -0.29971386
H   -3.52774237  -0.15527275  -0.29700922
O   -0.22077615   2.88052276  -1.66216703
H    0.10314966   2.59777603  -0.80697220
H   -1.17308702   2.89209945  -1.56624084
O    0.23847480   0.82814687  -3.33158592
H    0.11987424   1.61312256  -2.79681596
H    0.70331905   1.13584062  -4.10970945
O    1.25093031  -0.44365704  -1.11596649
H    0.99595913  -0.10249621  -1.97318924
H    1.13847211   0.29677645  -0.51985975
O    0.64908323   1.57009524   0.62166129
H   -0.10504472   1.13045053   1.01438946
H    1.30127751   1.59919881   1.32168089
O    0.68464978  -0.80715673   3.37494496
H    1.31653148  -0.09827952   3.25473486
H   -0.12695175  -0.47245008   2.99349214
O    2.41242235   1.26315221   2.72341809
H    3.18723682   0.81205301   2.38815118
H    2.75610690   1.88858991   3.36133694
O   -2.95838141  -1.54806766  -1.38261341
H   -3.47056510  -2.34864850  -1.49649951
H   -2.16079433  -1.83468851  -0.93771433
O   -2.95892112   2.50417250  -1.62891501
H   -3.61388104   3.09087741  -2.00711694
H   -2.85903802   1.80657264  -2.27668785
O    1.11687166  -3.01798836   1.89595867
H    1.00124768  -2.27232549   2.48489824
H    1.22496682  -3.76959203   2.47874441
O   -2.49767491   0.42839560  -3.27182379
H   -2.64795599  -0.33489145  -2.71411390
H   -1.54868253   0.45288311  -3.39448462
