45
Energy:   -616.85869895
O    1.17615775  -0.95696894  -1.65342711
H    0.84105085  -0.56206449  -2.45840269
H    1.47998936  -0.21500218  -1.13054707
O   -2.01181040  -0.08637453   1.22791997
H   -1.76188656  -0.73447149   0.56933037
H   -2.61186194   0.50214592   0.76986575
O    2.35991519  -2.77850128   0.04611003
H    1.98351755  -2.24140294  -0.65108581
H    2.70798172  -3.54770870  -0.40489050
O    3.34312762  -0.69235884   1.55044719
H    4.18216632  -0.92514973   1.94800762
H    3.05758967  -1.49136241   1.10739728
O   -3.32364450   1.68438964  -0.47324663
H   -3.06509168   1.12252158  -1.20378518
H   -4.27885544   1.71955521  -0.52391491
O    0.69087665   2.63311765  -2.02212923
H    0.02237802   3.01519460  -1.45348291
H    1.33414515   2.26021448  -1.41931856
O   -0.06577135   0.58016128  -3.59335985
H    0.10484891   0.80111491  -4.50894712
H    0.18589295   1.36476064  -3.10622457
O    2.02142677   1.09688468  -0.10045313
H    1.32132287   1.32864661   0.50977041
H    2.65862707   0.62310710   0.43409568
O   -0.01917977   1.72008395   1.55635530
H   -0.38499533   2.47620638   1.09734582
H   -0.70623646   1.05527877   1.50924881
O   -0.67593525  -1.79100020   3.03866111
H    0.04300963  -1.21152020   3.29075840
H   -1.31558213  -1.21292377   2.62283499
O    1.34454283   0.03738136   3.34326944
H    2.07703298  -0.21198769   2.77979353
H    0.93870669   0.77939334   2.89499820
O   -1.22012805  -1.83311161  -0.69622165
H   -0.99423750  -2.57584182  -0.13625992
H   -0.38178464  -1.53477706  -1.04893778
O   -1.24710392   3.46880771  -0.21205179
H   -2.01740304   2.91284995  -0.32944887
H   -1.60171981   4.35230300  -0.11247525
O   -0.11900579  -3.58126337   1.05511398
H    0.78976536  -3.36568930   0.84560344
H   -0.30734205  -3.08113085   1.84923535
O   -2.48491592  -0.01939503  -2.37717866
H   -2.22126944  -0.80389508  -1.89626074
H   -1.72192608   0.20272315  -2.91079076
