45
Energy:   -616.03989810
O    1.19120214  -0.43007942  -1.51053660
H    0.72040793   0.16805651  -2.09089689
H    1.62884161   0.14201025  -0.88012645
O   -2.12834985  -0.42994551   0.98386755
H   -1.77847558  -0.97833279   0.28166300
H   -2.82362200   0.07907505   0.56706239
O    2.43026233  -2.38129813   0.12454300
H    1.68014530  -2.91223124   0.39224867
H    2.11798346  -1.89082527  -0.63581884
O    3.27580151  -0.53425883   1.90093731
H    3.02746438  -1.25158918   1.31784411
H    4.10522631  -0.81527108   2.28735478
O   -3.74505043   1.12443297  -0.66219820
H   -3.38201094   0.65783801  -1.41500849
H   -4.69345320   1.06045381  -0.77476248
O    2.20743413   2.74052774  -2.21864334
H    3.09339189   2.87955416  -2.55328098
H    2.33609391   2.37052737  -1.34527158
O   -0.26234990   1.62362458  -2.65559038
H   -0.74447342   2.10610102  -1.98402114
H    0.57739291   2.07829726  -2.72144339
O    2.26058710   1.38016471   0.20612973
H    1.41285684   1.50671240   0.63224114
H    2.75832277   0.83811465   0.81823493
O   -0.24574742   1.52668087   1.28585572
H   -0.64610823   2.20164805   0.73780245
H   -0.86112689   0.79426758   1.25252802
O   -0.81992146  -2.05952421   2.82263979
H   -0.18130959  -1.42756382   3.15284091
H   -1.46985348  -1.52679589   2.36435956
O    0.95302245  -0.03863571   3.33076070
H    0.57884854   0.67307943   2.81144645
H    1.80364239  -0.20928918   2.92634142
O   -1.01414068  -1.91433586  -0.98925479
H   -0.73329586  -2.66789241  -0.47011072
H   -0.20617506  -1.43529301  -1.17348658
O   -1.66800189   2.92330278  -0.65596426
H   -2.46917709   2.40097915  -0.61687248
H   -1.97338582   3.82257019  -0.77550768
O    0.08646427  -3.65580215   0.85834377
H   -0.20757660  -3.14311021   1.61128387
H   -0.03263723  -4.56676477   1.12703278
O   -2.44797393  -0.15548644  -2.63431432
H   -2.03605648  -0.92266198  -2.23682527
H   -1.71511173   0.40221118  -2.89530896
