45
Energy:   -616.33903643
O   -0.33353081  -1.98571591   0.74859060
H    0.31737937  -2.49987127   1.22628512
H    0.13542235  -1.65839308  -0.01898646
O   -1.20764121   2.03287205   0.67457177
H   -1.49326581   2.43450469  -0.14600221
H   -2.00167260   1.64264347   1.03990401
O    3.30723687  -1.65353774   0.16230927
H    3.44713034  -0.78714769   0.54444792
H    2.66281249  -1.50902289  -0.53055762
O    2.00975309  -0.56251800   3.40022572
H    2.01259032  -1.47403718   3.10806725
H    1.09816149  -0.28464194   3.31068526
O   -3.16906654   0.52102062   1.78931377
H   -3.22181496  -0.16789818   1.12686352
H   -2.48371739   0.22562639   2.38870565
O    0.35840326   2.22216479  -2.96163370
H   -0.47484763   2.59340568  -2.67162509
H    0.88145242   2.15343443  -2.16293002
O   -0.31542437  -0.30393820  -3.60396074
H   -0.04644542   0.60561609  -3.47514624
H   -0.16789705  -0.46821810  -4.53534662
O    1.07124012  -0.93984556  -1.31752086
H    0.63927071  -0.88001812  -2.16960944
H    1.16577639  -0.03110950  -1.03205016
O    1.31098440   1.59847642  -0.41185163
H    0.51548076   1.82000728   0.07222468
H    1.97800060   1.47934173   0.26426091
O   -0.51965312   0.05221032   2.56424670
H   -0.54994754   0.84253799   2.02508413
H   -0.46860895  -0.66643094   1.93402367
O    3.21357152   0.82144919   1.43843308
H    2.81243726   0.38758164   2.19148161
H    3.94749615   1.31280490   1.80742638
O   -2.88467816  -1.47237810  -0.11910790
H   -3.41719173  -2.26777774  -0.11835344
H   -2.02049659  -1.76185760   0.17350733
O   -2.08933758   2.80105831  -1.81484521
H   -2.83886914   3.36329730  -2.01060424
H   -2.40053562   1.91430969  -1.99668171
O    1.91045677  -2.98682564   2.03491287
H    2.47529481  -2.60096291   1.36536093
H    2.33134238  -3.81815031   2.25397094
O   -2.71250754   0.22805059  -2.31294217
H   -2.80360421  -0.38366553  -1.58236936
H   -1.95353126  -0.09188285  -2.80061977
