45
Energy:   -618.96405792
O   -0.46907331  -2.00535572   0.89567525
H    0.16215556  -2.56442729   1.34868842
H    0.03452115  -1.59599970   0.19207584
O   -0.98138311   2.14062894   1.71329310
H   -1.29196778   2.88373224   2.23056139
H   -1.73622596   1.88509946   1.18305844
O    3.27027755  -1.63762532   0.29662618
H    3.43344096  -0.80739270   0.74420115
H    2.57894099  -1.43813717  -0.33463453
O    1.94210688  -0.75460476   3.50428834
H    1.95898300  -1.65022432   3.16692705
H    1.01513809  -0.51594223   3.50524070
O   -2.99491314   1.33391648   0.14605524
H   -2.99290494   0.39109146  -0.01919854
H   -2.88851356   1.72942829  -0.71909295
O    0.27524684   2.27064902  -2.58817579
H   -0.66217422   2.42696600  -2.47398906
H    0.62706478   2.26068935  -1.69803154
O    0.24753789  -0.22724436  -3.58008167
H    0.30698536   0.69470692  -3.32967464
H    0.73815568  -0.28536727  -4.39992785
O    1.01001332  -0.79522194  -1.01715917
H    0.78828643  -0.71189040  -1.94458835
H    1.04039211   0.10589622  -0.69576372
O    1.13759618   1.71692297   0.02197855
H    0.42877817   1.92402665   0.63100805
H    1.88902885   1.52737164   0.58380688
O   -0.67787086  -0.24897329   3.02382670
H   -0.81499214   0.60992163   2.62416544
H   -0.70736991  -0.86267518   2.28984329
O    3.16620220   0.78155079   1.66940433
H    2.73131279   0.29653301   2.37073221
H    3.88774115   1.23639256   2.10383770
O   -2.77414615  -1.36989619  -0.45868862
H   -3.47812682  -1.97165726  -0.21676574
H   -2.01411579  -1.67912972   0.03422143
O   -2.49065645   2.24675996  -2.39167169
H   -2.54229613   1.34220878  -2.70046345
H   -3.11422601   2.72336758  -2.93961148
O    1.83687643  -3.11453270   2.03760807
H    2.26536368  -3.95452124   2.20207627
H    2.40238026  -2.67722388   1.40105622
O   -2.46499784  -0.35540178  -3.04032192
H   -2.54825463  -0.82319155  -2.20937494
H   -1.54823737  -0.47116120  -3.29008551
