45
Energy:   -619.48100517
O    0.26620927  -1.71533188  -1.85000647
H   -0.40879775  -1.47134607  -2.48330600
H    0.69489916  -0.88933708  -1.62597649
O   -1.35001103   0.72716230   1.77094903
H   -2.09597857   1.18900503   1.38824083
H   -1.31965617  -0.10797430   1.30419719
O    2.73448209  -2.86505821  -1.35360059
H    1.84812305  -2.63110203  -1.62903479
H    3.15124693  -3.20180050  -2.14678628
O    2.71131079  -1.22404584   0.83802712
H    2.05706139  -1.67868645   1.36858484
H    2.92713561  -1.84317870   0.14065635
O   -3.25946451   1.91154387   0.17823450
H   -3.32667438   1.08662347  -0.30261996
H   -4.16461074   2.20764062   0.27450950
O   -0.12933347   1.59728025  -2.98509508
H   -0.52974640   2.26929708  -2.43346594
H    0.64956958   1.32245938  -2.50134372
O   -1.72102553  -0.53385795  -3.35511802
H   -1.20854626   0.27192311  -3.28943903
H   -2.02996691  -0.54861905  -4.26097076
O    1.57798972   0.50477986  -1.00542280
H    1.23552657   1.18565341  -0.42631828
H    2.10254501  -0.05536445  -0.43331097
O    0.65755053   2.27543465   0.82698082
H    1.39786814   2.09642192   1.40673605
H   -0.06506158   1.76825278   1.19688642
O    0.46575238  -0.04244161   3.73769447
H    1.22731135   0.44705384   3.42680223
H   -0.27240975   0.33071948   3.25592760
O    2.63551164   1.07477087   2.38683014
H    2.81715342   0.29537209   1.86168667
H    3.49254786   1.34978018   2.71254573
O   -1.15803756  -1.67847373   0.46634214
H   -0.60148893  -2.07469543   1.13678515
H   -0.65965374  -1.77231784  -0.34546984
O   -1.16560569   3.24496670  -1.07461384
H   -1.95275250   2.87875919  -0.67147142
H   -0.49078159   3.16369312  -0.40064138
O    0.71842491  -2.34198074   2.38527023
H    0.77997531  -3.09071515   2.97843140
H    0.60687782  -1.58682427   2.96278889
O   -3.22528105  -0.49709101  -1.02937461
H   -2.68509269  -1.06437527  -0.47926831
H   -2.80320690  -0.52296351  -1.88810383
