45
Energy:   -619.09443101
O   -0.34696882  -1.69874830   0.98774978
H    0.36772171  -1.96273525   1.56719795
H   -0.52097296  -0.78694033   1.22133195
O   -0.81561070   0.95014220   1.39097737
H   -1.68183059   1.05793882   0.99819902
H   -0.20595423   1.22962662   0.70801375
O    3.54826597  -1.25106284   0.40104377
H    3.63301038  -0.30586595   0.52615604
H    2.90724208  -1.34332691  -0.30380199
O    2.51207570   0.52044047   3.32897585
H    2.28590011  -0.39626426   3.17172164
H    1.69952727   0.91777067   3.64222595
O   -3.29117983   0.95007505   0.21824956
H   -3.18900250   1.15087454  -0.71205749
H   -4.11992473   1.36178289   0.46301557
O   -0.26295347   1.84845927  -2.94025585
H    0.16735621   2.53698017  -3.44721187
H    0.22376665   1.81706284  -2.11663601
O   -0.16733932  -0.89130185  -3.42373426
H   -0.18902688   0.06563782  -3.41844560
H   -1.08463808  -1.15258989  -3.34296680
O    1.28189028  -1.23976626  -1.16513328
H    0.81832629  -1.27240050  -2.00195781
H    0.64089356  -1.54601272  -0.52359750
O    1.04602052   1.38205106  -0.57355587
H    1.15658937   0.46322157  -0.81801191
H    1.84094698   1.59801093  -0.08602627
O    0.06248058   1.57998743   3.90178232
H   -0.31000931   1.41981945   3.03470138
H   -0.68104569   1.50515721   4.49994699
O    3.34702737   1.47480961   0.96257789
H    3.06122664   1.21049296   1.83704144
H    4.10211677   2.04214378   1.11815351
O   -2.84217209  -1.75337891  -0.25866518
H   -2.02760182  -1.93146707   0.21143240
H   -3.09376945  -0.87350511   0.02196396
O   -2.92913844   1.30848938  -2.41456052
H   -2.04687444   1.59547858  -2.65010090
H   -2.98262138   0.40852214  -2.73616647
O    1.98965359  -2.05924763   2.43875746
H    2.38679930  -2.81274118   2.87551210
H    2.59555834  -1.84645911   1.72894599
O   -2.82717700  -1.41117659  -2.93430092
H   -2.83950925  -1.62866724  -2.00221853
H   -3.38555480  -2.07283530  -3.34253349
