45
Energy:   -617.68741279
O    0.62604729  -0.14742278   3.08469711
H    0.03906018  -0.67403584   2.54215065
H    0.20999844  -0.13551279   3.94666774
O   -3.19341264  -2.34380813  -0.11162202
H   -3.66208758  -1.51030835  -0.06856661
H   -3.88183380  -3.00813022  -0.08024827
O   -1.54362900   1.00310633  -2.22568376
H   -1.60273495   0.05648201  -2.35468271
H   -0.60431261   1.18027225  -2.17539653
O   -1.76329675   1.26372271   0.48334006
H   -1.71592852   1.25627013  -0.47265814
H   -1.00777325   1.78383923   0.75700935
O   -4.28075604   1.28696277  -2.47573775
H   -3.32448531   1.31717429  -2.50515567
H   -4.54772188   1.23963831  -3.39373638
O    0.76395219  -1.60647768  -0.85128865
H    1.64509637  -1.80713298  -0.53576647
H    0.22792458  -1.56984049  -0.05909930
O    3.30177157  -0.43960356   2.42391320
H    2.41054743  -0.39813887   2.77065815
H    3.51171756   0.46524785   2.19283212
O    0.88267661   1.89435865   1.24102090
H    0.78249899   1.24961608   1.94138032
H    1.79293638   2.18261731   1.30859268
O   -4.28909363   0.11417733   0.01306528
H   -4.47159927   0.50882466  -0.83968147
H   -3.59570559   0.65857524   0.38599395
O    3.35743761  -1.76244938   0.08144622
H    3.36457879  -1.36719083   0.95319821
H    3.99442735  -2.47486022   0.13572985
O    3.64309348   2.09951331   1.33270053
H    4.33087596   2.76180598   1.40019521
H    3.78447378   1.69297259   0.47773380
O   -1.61182759  -1.69842833  -2.30428620
H   -0.73457780  -1.86509624  -1.95948704
H   -2.20249860  -2.02090379  -1.62358862
O    1.08409506   1.03893642  -1.37838833
H    0.99949050   1.39065214  -0.49217731
H    0.98535186   0.09285651  -1.27155002
O    3.79084991   0.77119400  -0.99644244
H    3.77209954  -0.15472429  -0.75445983
H    2.91666501   0.94589060  -1.34503060
O   -1.01506868  -1.23831328   1.19463670
H   -1.30183256  -0.35520345   0.96200961
H   -1.73252551  -1.80570539   0.91258400
