45
Energy:   -616.91386830
O   -0.78994322  -1.91362992   0.09708999
H   -0.30150872  -2.40511455   0.75747354
H   -0.11552721  -1.50115176  -0.44259203
O   -1.24276036   0.29803378   1.62739495
H   -2.09546363   0.62879128   1.34503267
H   -1.13438074  -0.52455448   1.15007507
O    3.04049360  -2.15319335   0.22430205
H    2.48960933  -1.59298430  -0.32243755
H    3.41235214  -2.79157134  -0.38432478
O    4.27302143  -0.71696021   2.21851681
H    4.32470002  -1.35070069   2.93401257
H    3.92609248  -1.21693668   1.47966927
O   -3.55166898   0.94225793   0.34465003
H   -3.38990938   1.58276670  -0.34803619
H   -3.60578170   0.10297677  -0.11241758
O   -0.19936562   2.76961110  -1.84673615
H    0.21528033   2.52349963  -1.01985664
H    0.05027225   2.07520019  -2.45641334
O    0.19674024   0.50544183  -3.42087110
H   -0.74074718   0.32107288  -3.36292912
H    0.38119149   0.51833753  -4.36004270
O    1.25880603  -0.57329490  -1.12731955
H    0.98732602  -0.28532905  -1.99887340
H    1.19113620   0.21143210  -0.58339292
O    0.82824096   1.59662266   0.44337549
H    0.05483457   1.25953569   0.89553341
H    1.49735849   1.65739879   1.12515247
O    0.78177310  -0.50467399   3.36104584
H    1.41626664   0.19138759   3.19031782
H   -0.03848160  -0.17759168   2.99167984
O    2.62706731   1.39986724   2.52476476
H    3.28011407   0.71265774   2.39245874
H    3.08001317   2.06470301   3.04347979
O   -3.24910755  -1.47175271  -1.01989452
H   -3.80655669  -2.24619923  -0.94429753
H   -2.41523035  -1.73752416  -0.63227848
O   -2.88645669   2.56488121  -1.79753103
H   -3.26792334   3.41577526  -2.01361977
H   -1.94288868   2.72403983  -1.77345225
O    0.96448971  -2.84339288   1.93986473
H    0.93846468  -2.10918108   2.55345057
H    1.74963743  -2.68935442   1.41446292
O   -2.45478698   0.16697221  -3.10685281
H   -2.78370045  -0.47635675  -2.47901874
H   -2.73278033   1.01171375  -2.75278603
