45
Energy:   -615.60017469
O   -0.60827488  -2.26119603   0.31119532
H   -0.00462517  -1.74940735  -0.22723872
H   -0.04585578  -2.70720265   0.94443675
O   -1.84949098  -0.71208354   2.23700499
H   -1.46084780  -1.29283640   1.58285329
H   -2.15155133   0.04557697   1.73606392
O    3.09284449  -1.68254214   0.59926143
H    2.50721409  -1.37542994  -0.09280142
H    2.53293088  -2.20578568   1.17279852
O    3.97611510   0.54126092   1.84857743
H    3.71822363  -0.27233635   1.41523771
H    4.90232739   0.64597575   1.63086789
O   -2.35062318   1.05764124   0.12259724
H   -2.54155971   1.70683160  -0.55440125
H   -2.58055530   0.21899180  -0.27744048
O    0.13925152   2.71065987  -2.37844567
H    0.36605969   2.49095525  -1.47483083
H    0.38348204   1.93455274  -2.88266886
O    0.45128247   0.21788536  -3.58270913
H   -0.49867872   0.10234660  -3.56134603
H    0.70084789  -0.01135486  -4.47791741
O    1.11763179  -0.66951601  -1.05452668
H    0.99217602  -0.47411546  -1.98313387
H    0.92832077   0.15567958  -0.60793355
O    0.35203099   1.62773378   0.15846405
H   -0.57822331   1.45542451   0.30395735
H    0.72748501   1.67624621   1.03761857
O    0.49337668  -0.76132496   3.62499772
H    0.90570680   0.05690695   3.34802793
H   -0.40723732  -0.69570743   3.30747511
O    1.59198294   1.55833477   2.61515587
H    2.45978600   1.24315096   2.36255169
H    1.76509807   2.26861030   3.23303261
O   -2.83138102  -1.39328812  -1.04173714
H   -3.59807244  -1.91815658  -0.81167363
H   -2.09544493  -1.85400476  -0.63878540
O   -2.53657567   2.57688639  -2.18692211
H   -2.94029613   3.38509346  -2.50321782
H   -1.59594225   2.72350141  -2.28664498
O    1.25184515  -2.94440657   2.24654516
H    1.44521520  -3.64671948   2.86750929
H    1.03162254  -2.19216836   2.79597353
O   -2.22511344   0.05957288  -3.33117128
H   -2.49297582  -0.53028877  -2.62651192
H   -2.47497243   0.93066939  -3.02296158
