45
Energy:   -628.48564888
O    0.32051107  -1.50998413  -1.69890204
H   -0.28904461  -1.30168039  -2.40691565
H    0.83401615  -0.71077177  -1.58141173
O   -1.45175220   0.57377298   1.70872799
H   -2.16572756   1.09678302   1.34413023
H   -1.49091738  -0.25348453   1.22878742
O    2.08174338  -2.69005435   0.12177766
H    1.49190658  -2.90646851   0.84391983
H    1.50026695  -2.50262905  -0.61510005
O    3.68826901  -0.54420592   0.34105207
H    3.16770870  -1.34677121   0.30732125
H    4.56032684  -0.81140715   0.05062053
O   -3.27391453   1.91478846   0.12316967
H   -3.35170982   1.13122865  -0.42108557
H   -4.16813920   2.24936621   0.19137396
O   -0.07570329   1.79109169  -3.05829733
H   -0.48420079   2.40682957  -2.44983327
H    0.73545588   1.52707295  -2.62407764
O   -1.55062632  -0.42461080  -3.42062013
H   -1.07724162   0.40453032  -3.35232836
H   -1.75897243  -0.50605554  -4.35131369
O    1.79234822   0.73036717  -1.24398416
H    1.37233998   1.24247138  -0.55291673
H    2.57341018   0.36345851  -0.82979568
O    0.64337536   2.05127473   0.83134476
H    1.34896301   1.85523540   1.44774277
H   -0.10483266   1.55009503   1.15574500
O    0.47387233  -0.60531005   3.35271724
H    1.24343888  -0.08447995   3.12307584
H   -0.26519597  -0.11005890   2.99953712
O    2.61051197   0.90923038   2.41447070
H    3.05684310   0.39415864   1.74236842
H    3.31738341   1.26548263   2.95266113
O   -1.45819189  -1.76879223   0.32967446
H   -1.02920468  -2.34107315   0.96583197
H   -0.83555661  -1.70578148  -0.39460918
O   -1.11449503   3.25239707  -0.99643977
H   -1.92289648   2.88388025  -0.64018945
H   -0.45456233   3.07638375  -0.32581320
O    0.21913479  -3.00406413   2.15134582
H    0.34420567  -2.19508749   2.64747676
H    0.10807008  -3.68054512   2.81938021
O   -3.29860701  -0.39348481  -1.27036062
H   -2.85559727  -1.02715791  -0.70606227
H   -2.79212353  -0.40015671  -2.08255629
