45
Energy:   -628.19276388
O    0.64455315  -0.99962065  -1.96714542
H    0.11513342  -0.58895866  -2.65074131
H    1.11931323  -0.27354583  -1.56260856
O   -1.57473492  -0.01825702   1.68302171
H   -2.26214897   0.57705454   1.38419413
H   -1.50934445  -0.67610546   0.99078522
O    2.25213825  -2.71735788  -0.44530712
H    1.60030909  -3.10377686   0.13952701
H    1.73753589  -2.30395816  -1.13850040
O    3.69809071  -0.66232245   0.53388167
H    3.24618665  -1.44628618   0.22176720
H    4.62363045  -0.90631217   0.54265949
O   -3.26462644   1.74655770   0.35639938
H   -3.21929072   1.15365237  -0.39369381
H   -4.19916801   1.81561655   0.55157817
O    0.17948567   2.60027333  -2.24987665
H   -0.29519294   3.00375724  -1.52316295
H    0.95060985   2.20526496  -1.84297649
O   -1.04961287   0.55813649  -3.50474556
H   -0.64755304   1.33880362  -3.12377498
H   -1.09042813   0.74281197  -4.44307435
O    1.94312393   1.04879016  -0.73919947
H    1.44925048   1.30451448   0.03985504
H    2.70231869   0.57631987  -0.39769252
O    0.46539743   1.75246018   1.41638213
H    0.00463789   2.50884269   1.05331463
H   -0.22170263   1.10401936   1.57016722
O    0.14635695  -1.69427359   3.13852830
H    0.93112184  -1.14626386   3.14635477
H   -0.55883842  -1.09993596   2.88221968
O    2.22864455   0.04208470   2.78506830
H    2.81567286  -0.20360967   2.07004110
H    1.74663100   0.79845662   2.45070875
O   -1.31820154  -1.85296658  -0.30777391
H   -0.94316231  -2.58691059   0.17895354
H   -0.62142263  -1.57962112  -0.90444238
O   -1.16936378   3.49686224   0.00948957
H   -1.95165470   2.95519232   0.11363585
H   -1.47186399   4.38972454   0.17538830
O    0.20764823  -3.57587360   1.22228387
H    0.22943803  -2.95910514   1.95396257
H    0.12406723  -4.43533125   1.63529552
O   -2.99248335  -0.04922151  -1.62476176
H   -2.59726968  -0.82762675  -1.23217636
H   -2.41969940   0.16536673  -2.36103771
