45
Energy:   -620.23237262
O   -0.56072502  -1.84826398   0.40919722
H   -0.06415436  -2.29679736   1.09364387
H    0.09830414  -1.58946115  -0.23495612
O   -0.99186286   0.65604856   1.42910947
H   -1.80053340   0.92056270   0.99057090
H   -0.86600719  -0.25684196   1.17022126
O    3.18090032  -1.77090135   0.63405927
H    3.36280463  -0.91655669   1.02551537
H    2.69961100  -1.56958821  -0.16847762
O    1.79698346  -0.51736796   3.75712739
H    1.54306202  -1.35541840   3.37056922
H    0.96953250  -0.11254377   4.01726989
O   -3.18862791   1.11131167  -0.06657921
H   -2.95508293   1.67010375  -0.80782140
H   -3.21889373   0.22736600  -0.43257904
O    0.41116184   2.38225429  -2.45950230
H   -0.52663829   2.54647314  -2.36053290
H    0.73177235   2.27464768  -1.56403507
O    0.50118067  -0.00007180  -3.69973032
H    0.98375448   0.06820067  -4.52355872
H    0.51998004   0.88533465  -3.33650331
O    1.35540798  -0.86163959  -1.23764929
H    1.12854995  -0.70206828  -2.15378480
H    1.35354904   0.00683214  -0.83517538
O    1.20637987   1.51543969   0.06751088
H    0.42391991   1.34532525   0.59196235
H    1.93429678   1.40150953   0.67856631
O   -0.64908905   0.64801784   4.13216400
H   -0.84799263   0.70176158   3.19740156
H   -1.27397849   1.24399779   4.54514454
O    3.18983777   0.73567005   1.83166092
H    2.70746666   0.35830350   2.56728612
H    3.92301341   1.19827965   2.23746591
O   -2.81966099  -1.45005022  -1.10292737
H   -3.42383863  -2.18716790  -1.01427775
H   -2.06362342  -1.69386938  -0.56889436
O   -2.35358411   2.40472742  -2.35161638
H   -2.37533465   1.56528278  -2.81106328
H   -2.92631498   2.97431942  -2.86520780
O    1.27967467  -2.78814483   2.24560123
H    2.00457480  -2.51361475   1.68400984
H    1.54812865  -3.64253840   2.58350054
O   -2.25058996  -0.05044922  -3.43651204
H   -2.43998694  -0.63934484  -2.70605836
H   -1.31596703  -0.17003290  -3.60506934
