8
Energy:   -104.24171387
O   -1.24974792   1.64560237  -0.22819228
H   -1.22491901   0.84334828   0.29334750
H   -0.51395345   1.56055767  -0.83449729
S    0.82819987  -1.11630515   0.20167707
O    2.00007033  -1.23265595   1.11451993
O    1.07720532  -0.03303415  -0.79060325
O    0.62540600  -2.40774187  -0.51328158
O   -0.38988219  -0.79178862   0.99607316
