8
Energy:   -102.46660800
O   -1.30072877   1.55914536  -0.31370005
H   -0.38322157   1.57373525  -0.58609594
H   -1.46192739   0.64979351  -0.06205336
S    0.86995797  -1.04545583   0.25564111
O    1.29060996  -0.82464474   1.66787139
O    1.25823467   0.13365864  -0.56839182
O    1.53909589  -2.26559602  -0.27691159
O   -0.60810864  -1.22524121   0.19999646
