8
Energy:   -103.44384708
O    1.71243855   1.06980569   0.39659797
H    0.80738474   1.32380692   0.57713277
H    1.64465500   0.19373295   0.01694839
S   -1.15047639  -0.71550372  -0.27235760
O   -1.47710765  -1.67205917   0.82236323
O   -2.11224245  -0.89884158  -1.39551978
O   -1.24738081   0.67962288   0.24177402
O    0.23482536  -0.97073701  -0.75804788
