8
Energy:   -102.54096123
O    1.11514311   0.67518575  -1.61498825
H    0.53500161   1.35818506  -1.27856645
H    0.96166271  -0.07465172  -1.04016708
S   -0.72660762  -0.52506975   1.08641199
O   -0.53732583  -0.75434723   2.54644769
O   -0.83227111   0.93764077   0.82294817
O    0.43774346  -1.08110429   0.34128638
O   -1.97457699  -1.20246824   0.63496571
