8
Energy:   -105.51887069
O   -1.89498973   0.47100681   0.51044862
H   -1.12516082   0.97075026   0.23869176
H   -1.62457343  -0.44437465   0.43845102
S    1.28130996  -0.28303651  -0.33080706
O    1.47990807  -0.47245186  -1.79531402
O    2.58868469  -0.42363790   0.36998002
O    0.72515630   1.07571197  -0.07665023
O    0.33149074  -1.31176825   0.17875598
