8
Energy:   -104.29485883
O   -1.99889649  -0.44227120  -0.08057535
H   -1.34250126   0.08422195  -0.53684512
H   -1.49026148  -1.01691576   0.49153120
S    1.33628356   0.36468004   0.03832722
O    1.85229898   1.52228933   0.82176121
O    2.45547126  -0.25837650  -0.72280316
O    0.74708483  -0.64049922   0.96706806
O    0.29027917   0.83530652  -0.91271722
