8
Energy:   -104.81495362
O   -1.90206411  -0.81450052   0.23963530
H   -1.78990822   0.09820083  -0.02612617
H   -1.00994746  -1.14647740   0.34038785
S    1.29508498   0.52058758  -0.15448183
O    2.03255308   0.39343247  -1.44291979
O    2.12680587   1.28006298   0.82098600
O    0.01383292   1.24539994  -0.38500343
O    1.00714805  -0.83654509   0.38900990
