8
Energy:   -103.93542495
O   -1.17138773  -1.31851921  -1.07977827
H   -0.37056252  -0.97189833  -1.47317985
H   -1.15670550  -0.99347522  -0.17957680
S    0.75312974   0.90328615   0.74948734
O    2.03051659   0.75134990   1.50135049
O   -0.23748334  -0.09231554   1.24704437
O    0.21860202   2.27936564   0.95144124
O    1.00088368   0.67474461  -0.70188676
