8
Energy:   -103.44802738
O    1.43231586  -0.52842135  -1.38306166
H    1.34808894   0.17911108  -0.74389381
H    0.62115712  -1.02896666  -1.29526800
S   -0.94385152   0.37604029   0.94244506
O   -0.97854457   0.34713673   2.43176067
O    0.27099149   1.10939598   0.48808191
O   -0.90674663  -1.01862546   0.41934783
O   -2.16110639   1.06625390   0.43058982
