8
Energy:   -104.01915908
O   -0.86675784   1.86845824  -0.04766459
H    0.03907429   1.86051819  -0.35691683
H   -1.09280191   0.94421285   0.05676903
S    0.54004444  -1.28446331   0.08433925
O   -0.87859414  -0.83523038   0.16019668
O    1.41213970  -0.12214845  -0.24516651
O    0.95059861  -1.85699467   1.39725704
O    0.67603361  -2.32347974  -0.97493023
