8
Energy:   -107.29117237
O   -0.26447030   1.74286626   1.00174612
H   -0.14782683   1.71349281   0.05213391
H   -0.28436559   0.82412983   1.26962554
S    0.18974962  -1.18039713  -0.64759633
O    1.43386386  -1.94755713  -0.93698412
O    0.04873400  -0.99981647   0.82468259
O    0.26430509   0.15379404  -1.30674383
O   -0.98790448  -1.92800895  -1.17133997
