8
Energy:   -104.74892168
O   -1.19208212   1.67909823  -0.26373528
H   -1.63861986   0.83470283  -0.20182971
H   -0.26089370   1.45780888  -0.27602321
S    0.84432734  -1.10285753   0.19979437
O    1.24187979  -1.39912373   1.60488454
O    1.25871494   0.28455363  -0.15159313
O    1.51091150  -2.06804369  -0.71899901
O   -0.63419689  -1.22881635   0.06488505
