8
Energy:   -105.01129619
O    0.11151874   1.41115393   1.42489599
H   -0.08373270   1.51603590   0.49370939
H    0.33241591   0.48475535   1.52092697
S   -0.09500073  -0.94358702  -0.95150367
O   -1.51767808  -1.38118111  -0.88367613
O    0.57575666  -1.23184055   0.34737832
O    0.59995393  -1.68114656  -2.04381496
O   -0.03803544   0.51982017  -1.22590191
