8
Energy:   -102.40629314
O    0.79719755   1.46226570  -1.15206015
H   -0.11625596   1.64306268  -0.93036896
H    0.94261233   0.56362095  -0.85621558
S   -0.46448665  -1.00786437   0.80489081
O   -1.15610810  -2.32757969   0.79434380
O    0.00563177  -0.70452299   2.18585883
O    0.70367916  -1.05192771  -0.11898531
O   -1.41114944   0.05257292   0.35834590
