8
Energy:   -104.73970076
O    1.79974828   0.60357822  -0.57404934
H    1.53257346   0.35706241   0.31143325
H    0.99915021   0.53479081  -1.09418670
S   -1.19890648  -0.41172941   0.37681671
O   -1.15341598  -1.90071245   0.34583077
O   -0.22869410   0.09386809   1.38832998
O   -0.84046533   0.12418133  -0.96647017
O   -2.57305052   0.03574540   0.73957624
