8
Energy:   -103.48646331
O    0.68972649   0.03777523  -1.93604315
H    1.10003434   0.35995838  -1.13349887
H   -0.14710549  -0.32691074  -1.64803581
S   -0.45555632  -0.02063144   1.30280344
O   -1.26260275  -0.27973800   0.07738928
O   -1.26249295   0.77551925   2.26980776
O   -0.06998622  -1.31748542   1.92698730
O    0.77285664   0.73917839   0.93702943
