8
Energy:   -103.44909004
O    1.73014464   0.45620354   1.03054792
H    1.36243157  -0.23479169   0.47959915
H    1.11071868   1.18162126   0.95109695
S   -1.16141476  -0.37272862  -0.68221863
O   -0.97619621   1.05500012  -0.29831147
O   -2.30932490  -0.94584961   0.07536612
O   -1.43662108  -0.46233510  -2.14383834
O    0.07648315  -1.13772992  -0.36209084
