8
Energy:   -106.56343785
O   -1.09276891   0.53448218   1.65370642
H   -1.19773637   0.91993375   0.78385542
H   -0.32522605  -0.03189899   1.57419421
S    0.72473652  -0.38676759  -1.10878651
O   -0.43025093   0.55444480  -1.12372740
O    1.90377691   0.26368410  -1.74665511
O    1.05601153  -0.74415472   0.29927291
O    0.36940856  -1.62104455  -1.86403643
