8
Energy:   -103.73480642
O   -0.98579430   1.60821368  -0.79523727
H   -0.22735589   1.68650065  -0.21655412
H   -1.25110407   0.69156095  -0.72046866
S    0.67738443  -1.09743361   0.48876952
O    0.75763671  -2.00497010   1.66776786
O    1.68438614  -1.51336621  -0.52761998
O   -0.68739415  -1.17316963  -0.10431015
O    0.95490901   0.30177152   0.91924035
