7
Energy:   -133.04587389
O   -0.46451753   1.71187268  -2.11503246
H   -1.00406532   1.43233154  -2.85461125
H   -0.41278769   2.66371467  -2.20193863
O    0.48614523  -1.73192174   2.13011962
H    0.06901114  -2.59323323   2.14944584
H    0.87477474  -1.63392646   2.99936981
K    0.49590722   0.18286266  -0.13038855
