7
Energy:   -132.35167085
O   -0.78974481  -1.12286611   1.42404635
H   -0.83384172  -1.58977583   2.25848187
H   -1.66057285  -0.74025180   1.31682388
O    0.81679004   1.16908183  -1.42101574
H   -0.05014948   1.55389166  -1.54973677
H    1.42208530   1.90478120  -1.51373001
K    1.21900333  -1.35372453  -0.58264584
