7
Energy:   -133.54129542
O   -1.15648624   0.94526771   2.30687519
H   -1.08867872   1.69871603   2.89334737
H   -1.70842310   0.32218136   2.77948597
O    1.16081659  -0.87666101  -2.29643613
H    2.00389007  -1.31352659  -2.41729732
H    0.65033266  -1.12254411  -3.06791490
K    0.15361731   0.34867207  -0.22984437
