7
Energy:   -130.63824421
O    0.96050698   1.30742935   1.20461482
H    1.68601071   1.90394256   1.38913634
H    1.09178704   0.57602409   1.80797519
O   -0.87124011  -1.30499311  -1.16525769
H   -0.65952845  -2.05528460  -0.60985449
H   -1.45777828  -1.65913063  -1.83368228
K   -0.90072111   1.38822416  -0.91867931
