7
Energy:   -133.76618865
O   -1.68819419   0.45769108  -1.67243179
H   -2.33623410   0.95756199  -2.16882398
H   -2.02984958  -0.43641878  -1.66400584
O    1.70987742  -0.41288024   1.69570226
H    2.62680141  -0.55178418   1.93274223
H    1.21784186  -0.95537791   2.31200505
K    0.55037606   1.03409217  -0.50523101
