7
Energy:   -130.58428027
O    1.60940119  -0.82211737   1.32023475
H    1.91986804  -0.16096879   1.93888227
H    1.51762218  -1.61742495   1.84491973
O   -1.59216129   0.85211945  -1.20855815
H   -1.84767161   0.95539553  -2.12522624
H   -2.37440032   1.09386738  -0.71268327
K    0.85495167  -0.35786659  -1.26173944
