7
Energy:   -128.04474975
O   -1.44228266   0.79116324  -1.70102241
H   -1.95988708   0.03623146  -1.98101441
H   -2.07303913   1.50941857  -1.65114843
O    1.50071798  -0.73550095   1.73319942
H    2.34200164  -1.15442177   1.91480064
H    0.85965436  -1.27280558   2.19857348
K    0.83577305   0.89735616  -0.59892806
