7
Energy:   -139.43119820
O   -1.40507648   0.24871473   2.24252408
H   -1.07404373   0.40390992   3.12715034
H   -2.35552258   0.20318265   2.34649950
O    1.40507653  -0.24871555  -2.24252399
H    2.35550283  -0.20285808  -2.34653737
H    1.07407297  -0.40419945  -3.12711047
K   -0.00001080  -0.00003811  -0.00000241
