7
Energy:   -128.14225985
O    0.08247311  -1.54173637  -2.14447186
H    0.67640587  -1.04314189  -2.70561290
H   -0.20844587  -2.27144576  -2.69139252
O   -0.09524539   1.50135964   2.12442811
H   -0.74246907   2.06864078   2.54338571
H    0.72242992   1.99707354   2.16809342
K   -0.48298556  -0.77686390   0.80823772
