7
Energy:   -130.83000360
O   -1.14156464   2.48763671   0.31489903
H   -0.77720275   3.37276297   0.31002328
H   -1.79253315   2.49994395   1.01655448
O    1.00900118  -2.52713748  -0.34756528
H    1.77480096  -2.81040388   0.15197720
H    0.92001410  -3.18045146  -1.04146296
K    0.09009667   0.20216123  -0.43607592
