7
Energy:   -132.64827177
O    1.13865413   0.81148653   1.98741202
H    2.04149688   0.60939339   1.74192235
H    1.21586334   1.29152248   2.81193374
O   -1.16045620  -0.77177894  -2.00548207
H   -1.72520203  -1.23188031  -2.62644965
H   -0.46152091  -0.40219447  -2.54504544
K   -1.16966948  -0.37024904   0.72821797
