7
Energy:   -131.02537827
O    1.74720950   0.59068293  -0.48410084
H    2.00964778   1.44019625  -0.83862181
H    2.47657420   0.32957706   0.07811149
O   -1.81867713  -0.65204034   0.54894870
H   -2.04713615  -1.30752191   1.20802551
H   -1.93342491   0.18701159   0.99510635
K   -0.44575377  -0.62537064  -1.74038761
