60
Energy:   -252.00729060
C    2.42780009   3.66446721  -2.65860856
H    2.89237136   2.74861830  -2.95909895
H    3.11670523   4.47295789  -2.78764974
H    1.55877654   3.83717301  -3.25850012
C    2.01839987   3.57041542  -1.17700614
N    1.71358279   3.50038958  -0.07388580
C    2.75832942   0.22461432   1.07094914
H    3.59149250   0.02708883   1.71260570
H    2.07852698  -0.60099260   1.10472693
H    2.25828060   1.11200564   1.39864857
C    3.25730212   0.41998038  -0.37281619
N    3.62880998   0.56543930  -1.44776511
C    0.22903753  -3.67745871  -1.03893231
H    0.36063215  -4.21303648  -1.95585078
H   -0.30593845  -2.77054813  -1.22922945
H   -0.32480282  -4.28041279  -0.35001552
C    1.60672368  -3.34409662  -0.43689361
N    2.63247364  -3.09589340   0.01135156
C    1.95645763  -2.97136532   3.45723525
H    2.58287899  -2.56008590   2.69346454
H    2.37499770  -3.89309598   3.80384153
H    1.88838691  -2.28167804   4.27246338
C    0.55046278  -3.22933173   2.88432006
N   -0.49636429  -3.42139944   2.45775866
C   -1.96467327  -0.12804789   3.06387943
H   -2.22568270   0.55172534   2.27986246
H   -2.57047923   0.06936065   3.92348870
H   -2.12947819  -1.13265445   2.73447984
C   -0.47990852   0.05534888   3.42917286
N    0.62556632   0.19189611   3.70115042
C    1.32113313  -0.88057196  -3.32318402
H    0.75482020  -1.66236125  -3.78469823
H    1.41976309  -1.08153728  -2.27686468
H    2.29210771  -0.83193857  -3.77010935
C    0.59676814   0.46386668  -3.52162823
N    0.05744548   1.46486235  -3.66937896
C   -3.34174118   0.46310074  -3.53521422
H   -2.67212725   1.14890026  -4.01081530
H   -3.67037840   0.87371780  -2.60339326
H   -4.18751274   0.29340075  -4.16827935
C   -2.61521263  -0.87068075  -3.28068880
N   -2.07427911  -1.86374171  -3.09118306
C   -3.10540914  -2.60244143   0.20607308
H   -3.64257218  -3.12659170   0.96871491
H   -2.07882003  -2.50903310   0.49293329
H   -3.17077036  -3.14545710  -0.71357956
C   -3.71574661  -1.20095592   0.01918670
N   -4.17017060  -0.15748625  -0.11995870
C   -1.50360361   2.16613980  -0.55850713
H   -0.93329518   2.91875590  -0.05529994
H   -2.49981109   2.15302950  -0.16825355
H   -1.53371413   2.38225875  -1.60602088
C   -0.84728953   0.79075207  -0.33678562
N   -0.35863387  -0.23328661  -0.17170387
C    1.18472251   3.68547943   3.25488187
H    1.71612470   2.75925207   3.18694986
H    1.26429423   4.07016609   4.25016254
H    1.60420572   4.38869630   2.56610109
C   -0.29836811   3.45278621   2.91152186
N   -1.40259648   3.27953553   2.65587472
