60
Energy:   -254.68352832
C    2.71666066   1.60685250  -3.30127569
H    2.22097654   0.69876364  -3.57435453
H    3.69889403   1.61853399  -3.72551647
H    2.15899586   2.44235380  -3.66984949
C    2.81901407   1.69451188  -1.76718325
N    2.89522083   1.75977827  -0.62498170
C    0.51153817  -3.35163853   3.09553533
H    0.17795175  -4.34685503   3.30329580
H    1.22997766  -3.05543472   3.83106717
H    0.96138846  -3.32152984   2.12516052
C   -0.68981285  -2.38891510   3.13451396
N   -1.58427328  -1.67212375   3.16353533
C    2.85502586   2.02837062   2.96251828
H    2.53408586   2.43700596   2.02714945
H    3.89518598   2.23552545   3.10412653
H    2.29175186   2.47115288   3.75722915
C    2.63057962   0.50481490   2.96115059
N    2.46346920  -0.62954158   2.96013227
C    3.33280815  -1.84548539  -0.06608499
H    2.46768368  -2.29591431   0.37388503
H    3.41852766  -0.83359471   0.27100330
H    4.20573397  -2.39277205   0.22266561
C    3.19820777  -1.86588695  -1.60005583
N    3.09799167  -1.88107684  -2.74216684
C   -3.26121820  -1.96545241   0.24633828
H   -2.40082279  -2.52121104   0.55577691
H   -4.14526773  -2.44154780   0.61605263
H   -3.20232691  -0.97065333   0.63596078
C   -3.31193346  -1.91212091  -1.29190218
N   -3.34969329  -1.87241318  -2.43719212
C   -0.11440030  -3.30307876  -3.15102418
H    0.33254778  -4.18037337  -3.56994154
H    0.40786435  -2.43616516  -3.49829864
H   -1.13952631  -3.24643466  -3.45236649
C   -0.03392682  -3.36966312  -1.61457029
N    0.02598935  -3.41923821  -0.47061053
C   -2.96679891   1.64080523  -3.05673123
H   -3.41911384   0.74129945  -3.41894765
H   -1.95313129   1.69178033  -3.39552112
H   -3.50906972   2.48627277  -3.42554838
C   -2.99426260   1.64521386  -1.51698245
N   -3.01471056   1.64849629  -0.37056949
C   -2.97795415   1.37886721   3.22194378
H   -3.02829407   0.63935972   3.99362683
H   -3.24083690   0.93473980   2.28463775
H   -3.65974389   2.17306556   3.44400418
C   -1.54587753   1.93936573   3.14071593
N   -0.47963139   2.35668235   3.08023810
C    0.01553360   0.00303708   0.52912866
H   -0.97418023   0.09174235   0.92598894
H    0.60679393   0.83253551   0.85660791
H    0.45768981  -0.90830744   0.87387227
C   -0.04736573  -0.00683506  -1.00955461
N   -0.09419715  -0.01418531  -2.15517425
C   -0.07623241   3.81115602   0.06045325
H    0.77731814   3.28130558   0.42870608
H   -0.96810498   3.36095802   0.44357748
H   -0.02695355   4.83168262   0.37825214
C   -0.09200210   3.75289762  -1.47836359
N   -0.10374336   3.70952159  -2.62408267
