60
Energy:   -251.80607579
C    2.52774694   1.54720087  -1.40607867
H    1.78506114   0.78786316  -1.53540089
H    3.08837773   1.65556591  -2.31098156
H    2.05129320   2.47531227  -1.16838108
C    3.47550897   1.14832755  -0.25967245
N    4.18116088   0.85134824   0.59387909
C   -1.31077468  -3.25485446   0.07549654
H   -2.20359312  -3.72656720  -0.27842789
H   -0.53176460  -3.98350827   0.15979378
H   -1.01295940  -2.49243305  -0.61364695
C   -1.57560755  -2.62453973   1.45541208
N   -1.77278765  -2.15524177   2.48282193
C    3.04109321   2.77039716   3.40789564
H    2.64876043   2.21250544   4.23235426
H    3.35303528   3.73613104   3.74693740
H    3.87880551   2.25065971   2.99195073
C    1.95111428   2.93144303   2.33197270
N    1.13957543   3.05134900   1.53089916
C    5.12080183  -2.32950401  -1.00968877
H    4.60747666  -3.21646095  -0.70194724
H    5.19090722  -1.65315690  -0.18352964
H    6.10395379  -2.58490408  -1.34596562
C    4.34370174  -1.65879693  -2.15767285
N    3.76511540  -1.15942502  -3.01239918
C   -4.77883794  -1.16263778   0.99039408
H   -4.31198511  -1.84167832   0.30786015
H   -5.83716442  -1.32004733   0.98224634
H   -4.40062222  -1.33213301   1.97686422
C   -4.47190538   0.28517406   0.56467905
N   -4.24338014   1.36313578   0.24771487
C    0.43454104  -1.72311071  -3.11479669
H   -0.43302905  -2.34931016  -3.12462360
H    0.85900574  -1.71715513  -2.13260866
H    1.15384592  -2.09928901  -3.81192615
C    0.03701955  -0.28900513  -3.51092526
N   -0.25895327   0.77875166  -3.80586098
C   -3.71761692   0.78726624  -3.25677166
H   -4.67365559   0.77251558  -3.73705559
H   -2.96437821   1.05062715  -3.96963320
H   -3.72710254   1.50736877  -2.46540483
C   -3.41208381  -0.60695852  -2.67850973
N   -3.18460053  -1.64502222  -2.24796744
C   -1.90953600   1.41386323   2.95179971
H   -2.82724107   1.49111458   3.49654718
H   -1.93830788   0.54661095   2.32574480
H   -1.77952534   2.28655977   2.34649229
C   -0.73443277   1.29484316   3.94001357
N    0.14048499   1.20622730   4.67578370
C    1.59682496  -0.77739644   2.23153253
H    1.10381760   0.09452917   1.85524852
H    2.53751497  -0.49887542   2.65864779
H    0.98673979  -1.23656114   2.98110771
C    1.83056362  -1.77232741   1.07954356
N    2.00459268  -2.51309875   0.22183540
C   -1.25989685   2.72968463  -0.98817744
H   -0.55731549   3.40193041  -0.54167409
H   -2.25059557   2.99455413  -0.68279361
H   -1.18627580   2.79280625  -2.05377338
C   -0.95118193   1.29008864  -0.53667054
N   -0.72132964   0.21824398  -0.20050313
