60
Energy:   -253.22738399
C    3.15559819   1.61553640  -2.95352996
H    2.50095683   2.39852999  -3.27488008
H    2.83904022   0.68759944  -3.38204267
H    4.15410855   1.83272004  -3.27087430
C    3.11629067   1.51156422  -1.41754666
N    3.08702443   1.43415221  -0.27393727
C   -0.30671630  -3.64521831   2.38474091
H   -0.81432633  -4.54529724   2.10708975
H    0.26436917  -3.81731695   3.27307786
H    0.34737036  -3.34576033   1.59265843
C   -1.33947118  -2.53307775   2.64581702
N   -2.10840414  -1.70503855   2.84020005
C    3.11531552   1.08831742   3.14330004
H    4.16551114   1.07688570   2.93870617
H    2.95190961   1.40522927   4.15214318
H    2.62877572   1.76603075   2.47331292
C    2.53925382  -0.32674873   2.95006258
N    2.11034971  -1.38032980   2.80618851
C    2.60508399  -2.13759948  -0.45245414
H    1.56321482  -2.00150680  -0.25024731
H    3.16390236  -1.35107525   0.01014802
H    2.92437745  -3.08045732  -0.06006420
C    2.84077254  -2.10846760  -1.97403300
N    3.01625338  -2.08677759  -3.10691763
C   -3.92728782  -1.51927002  -0.11784902
H   -3.93867105  -0.61849289   0.45953402
H   -3.14995583  -2.16201976   0.23925998
H   -4.87098436  -2.01483401  -0.02429544
C   -3.67146343  -1.17739426  -1.59746885
N   -3.48099055  -0.92285221  -2.69911307
C   -0.58566204  -2.86320379  -3.63367207
H   -1.40999638  -2.28092985  -3.98910157
H   -0.58339646  -3.81446083  -4.12357411
H    0.32990327  -2.35120231  -3.84460747
C   -0.72022740  -3.06904373  -2.11343456
N   -0.82041743  -3.22230092  -0.98154864
C   -1.80764631   1.96197321  -3.31406013
H   -2.35520389   2.24010259  -2.43786099
H   -2.46961254   1.50074383  -4.01688817
H   -1.37175926   2.83444541  -3.75416674
C   -0.69418571   0.96979079  -2.93015970
N    0.13483632   0.23106589  -2.64432837
C   -2.61092991   1.39945988   4.05787843
H   -3.08853394   2.15973513   4.63992320
H   -2.64018652   0.47166862   4.59008753
H   -3.12206243   1.29127061   3.12410238
C   -1.14577813   1.79627007   3.79812483
N   -0.05490603   2.09171330   3.60472647
C   -0.26451936   0.13327609   0.60261459
H    0.58777896   0.57365537   0.12874347
H   -0.48827101  -0.80298515   0.13544313
H   -0.05318954  -0.02686557   1.63924058
C   -1.47331584   1.07746139   0.46504570
N   -2.37331976   1.78045027   0.36261941
C    0.59903581   3.93063861   0.77174390
H   -0.40961669   3.89240793   1.12679141
H    1.06908803   4.82326640   1.12834681
H    1.13588056   3.07724235   1.13008956
C    0.60156246   3.92919816  -0.76825336
N    0.60344366   3.92812567  -1.91485131
