60
Energy:   -251.61853327
C    0.09519457   0.50676952   0.41476315
H   -0.53660641  -0.11297166   1.01613539
H   -0.24154566   1.52081936   0.47140277
H    1.10144723   0.44455407   0.77320967
C    0.04091816   0.02880273  -1.04817971
N    0.00050691  -0.32706528  -2.13740717
C   -1.12276950  -3.74020186  -1.59319036
H   -2.14280489  -4.00946727  -1.77186355
H   -0.49998293  -4.60181998  -1.71422832
H   -0.82592199  -2.98476907  -2.29040048
C   -0.97826640  -3.19983246  -0.15836641
N   -0.87067727  -2.79750289   0.90992525
C    0.25167850  -0.97789894   4.01498446
H   -0.72934565  -0.88019431   4.43085175
H    0.86704853  -1.54462544   4.68209756
H    0.19099703  -1.48020986   3.07216922
C    0.86528414   0.42009668   3.81325106
N    1.32214143   1.46096797   3.66305137
C    3.36395923  -1.27348768  -2.28464595
H    4.22182358  -1.44093831  -2.90184059
H    3.66514525  -0.79007396  -1.37883292
H    2.66571330  -0.65208348  -2.80542280
C    2.70074414  -2.62259827  -1.95051072
N    2.20695035  -3.62707243  -1.70173185
C   -3.89065830  -0.41026810   0.56588711
H   -3.07534288  -1.04127673   0.85222439
H   -4.54815357  -0.94966469  -0.08345901
H   -4.42620861  -0.10118567   1.43912992
C   -3.34700829   0.82939505  -0.16846970
N   -2.94223614   1.75238062  -0.71523173
C    2.24865605  -3.85641954   1.82432511
H    1.31274331  -3.87195018   2.34271330
H    2.99686223  -4.33029304   2.42476704
H    2.15123558  -4.38047387   0.89654529
C    2.65902658  -2.39779434   1.54935502
N    2.96456609  -1.31178157   1.34462729
C   -2.71189140   0.32053151  -4.06008743
H   -2.83940744   1.23205059  -3.51440179
H   -3.25846694   0.37510255  -4.97833373
H   -1.67330200   0.17365629  -4.27141379
C   -3.23649670  -0.85852762  -3.21972511
N   -3.62708920  -1.73639074  -2.59403716
C   -1.46947332   3.56981472   2.54490038
H   -1.82444241   4.26878065   3.27314742
H   -1.81635974   3.85847175   1.57472203
H   -0.39955382   3.55919725   2.55255639
C   -1.99921128   2.16365468   2.88208227
N   -2.39362528   1.11670461   3.13312951
C   -0.14887334   3.24110971  -2.61898348
H   -1.09246281   2.73684334  -2.60303020
H    0.61779207   2.55409562  -2.91076230
H   -0.18836749   4.04968697  -3.31865634
C    0.16260767   3.79191722  -1.21499250
N    0.39451943   4.20201845  -0.16965740
C    3.36200333   2.44656915   1.13348198
H    4.25894859   3.00941550   1.28708330
H    3.43173520   1.51501208   1.65524627
H    2.52516231   3.00103540   1.50383773
C    3.17513603   2.17921956  -0.37157776
N    3.03600483   1.98016564  -1.49216315
