60
Energy:   -251.59852371
C    3.04393019  -3.91109766   0.06805539
H    2.16002912  -4.36706376  -0.32655075
H    3.85303909  -4.61027363   0.03070792
H    3.29084796  -3.04839214  -0.51475668
C    2.79619754  -3.49020686   1.52856197
N    2.61174933  -3.17683453   2.61597550
C   -3.88120996   0.76452492   1.45162593
H   -2.98066909   1.25524419   1.75678313
H   -4.66090232   0.98263286   2.15120283
H   -4.16561833   1.11258312   0.48061282
C   -3.64580561  -0.75660273   1.40309282
N   -3.47053637  -1.88915141   1.36695772
C   -0.97637650   3.35416353   2.82691839
H   -1.35472896   2.42986497   3.21087384
H   -1.69033797   3.77927659   2.15279897
H   -0.80241734   4.03206228   3.63629505
C    0.34537021   3.09694956   2.07963892
N    1.32947072   2.90544206   1.52325539
C   -0.70479666  -2.86230696   3.19127736
H   -1.69115294  -3.20032114   3.43158525
H   -0.01505122  -3.22457985   3.92469993
H   -0.42630345  -3.23182703   2.22649990
C   -0.67872076  -1.32258166   3.17839170
N   -0.65930607  -0.17618618   3.16879774
C   -2.11983742   2.65906960  -3.02738914
H   -1.62888441   1.71896529  -3.16905497
H   -1.56698462   3.42863233  -3.52440632
H   -3.10815551   2.61023514  -3.43450294
C   -2.19969842   2.97480767  -1.52222081
N   -2.25915856   3.20988901  -0.40155457
C    2.06990299  -1.01860249  -3.27565050
H    2.45819906  -0.05629136  -3.01472208
H    2.61871240  -1.41150653  -4.10591174
H    2.16503409  -1.68013870  -2.44005549
C    0.58425127  -0.88600518  -3.65886968
N   -0.52188396  -0.78728046  -3.94419377
C   -0.33160065   0.24713494  -0.30431499
H   -0.77927107   0.53694095  -1.23194846
H    0.59465483   0.76754342  -0.17733115
H   -0.99140030   0.49144724   0.50183326
C   -0.07078662  -1.27059804  -0.31222892
N    0.12340127  -2.40061924  -0.31812120
C   -2.89037915  -2.67440736  -2.11708325
H   -2.00137059  -2.73941541  -2.70897675
H   -3.66636121  -3.25201441  -2.57438079
H   -2.69424519  -3.05388337  -1.13604883
C   -3.33533989  -1.20335762  -2.01898848
N   -3.66663339  -0.10809422  -1.94595246
C    3.26937300   3.30316568  -1.12474006
H    4.01650708   3.68949082  -1.78613535
H    3.68698551   2.51154121  -0.53837023
H    2.92741922   4.08395094  -0.47794715
C    2.08516431   2.76274566  -1.94765925
N    1.20346711   2.36037840  -2.56035999
C    3.00592696   0.21596345   2.46995631
H    1.96368286   0.21013661   2.71201716
H    3.42312711   1.17091211   2.71268285
H    3.50668484  -0.54508917   3.03115106
C    3.18480631  -0.05471610   0.96452124
N    3.31799011  -0.25624933  -0.15634361
