60
Energy:   -251.99400106
C    1.86502241   0.06164902  -4.50819844
H    1.81407818   0.45467829  -5.50209625
H    2.74580366  -0.53728512  -4.40621132
H    1.89946109   0.86892322  -3.80675603
C    0.62110926  -0.80387479  -4.23406598
N   -0.30504062  -1.44829661  -4.02996191
C   -0.87758962  -2.83789278   2.92140917
H   -1.54290532  -2.76150988   3.75592751
H   -0.29219719  -3.72892788   3.01235562
H   -1.44508490  -2.87493285   2.01505591
C    0.05421076  -1.61209042   2.89390281
N    0.74797850  -0.69942483   2.87342307
C    2.80187563   2.06174600   3.40141106
H    3.74415809   2.37898117   3.79684221
H    2.51955263   1.13390751   3.85341610
H    2.05888356   2.80212904   3.61282260
C    2.92138072   1.87495988   1.87745913
N    3.01035770   1.73588912   0.74280765
C    3.81990749  -1.61425788   0.69256251
H    2.92799260  -1.49342398   1.27117048
H    4.47371928  -0.78556509   0.86776949
H    4.30990739  -2.52168687   0.97781999
C    3.45736375  -1.67484721  -0.80292770
N    3.18743347  -1.71995872  -1.91638814
C    0.38169267   0.05396061  -0.57082967
H    0.91106355  -0.12713109  -1.48290008
H    1.03167559  -0.12424324   0.26023271
H    0.04537365   1.06950112  -0.54924067
C   -0.83164939  -0.89054324  -0.48531051
N   -1.73503771  -1.59376929  -0.42163761
C    0.38360441  -4.06927887  -1.98487229
H    1.08275036  -3.58068443  -2.63091454
H   -0.57290373  -3.59781900  -2.07271791
H    0.30050430  -5.09916128  -2.26296523
C    0.87361650  -3.96877844  -0.52837381
N    1.23845277  -3.89395129   0.55605551
C   -2.91274900   0.78401044  -2.85689786
H   -3.28990991   0.97651768  -1.87425306
H   -2.70303415  -0.26013641  -2.96022315
H   -3.64335982   1.07458141  -3.58262194
C   -1.62021614   1.59153131  -3.07796084
N   -0.65786667   2.19276730  -3.24255228
C   -4.77276172  -0.61391537   0.63403392
H   -5.83200167  -0.66335473   0.77709562
H   -4.45988359  -1.42040147   0.00428274
H   -4.51816182   0.31771583   0.17344593
C   -4.06499089  -0.72287524   1.99740775
N   -3.53802334  -0.80400082   3.01250154
C    0.60795422   4.08602656  -0.72918252
H    0.90845375   4.98335325  -1.22858720
H   -0.38577081   3.82649412  -1.02927011
H    1.27741534   3.29247643  -0.98802434
C    0.64215723   4.31019901   0.79403016
N    0.66762293   4.47710558   1.92813124
C   -1.36630402   2.01480836   3.00137482
H   -1.57698847   2.94869146   3.47926036
H   -0.30807335   1.85894771   2.97390847
H   -1.82960191   1.22117115   3.54945706
C   -1.91933536   2.03728196   1.56427660
N   -2.33109233   2.05401458   0.49429166
