60
Energy:   -252.11176805
C    2.94060842   2.29051546  -2.42653269
H    2.16756479   1.93345923  -3.07446370
H    3.60755674   2.91857195  -2.97936546
H    2.50453078   2.85066810  -1.62593017
C    3.72093357   1.09427443  -1.85059860
N    4.30192111   0.20361862  -1.42178949
C   -0.92807639  -3.95636546   2.02452174
H   -1.65521567  -4.07259643   1.24821059
H   -0.94770125  -4.81475372   2.66302275
H    0.04471719  -3.85715878   1.59009133
C   -1.25339037  -2.69642352   2.84812184
N   -1.49560142  -1.75833948   3.46132955
C    4.29354221   0.65132361   2.08192028
H    5.02282203   1.27837739   2.55080692
H    4.74507630   0.12862975   1.26472557
H    3.91951130  -0.05456935   2.79375952
C    3.13237572   1.51708306   1.55870622
N    2.26783449   2.16168032   1.16914956
C    2.83520785  -2.73552990  -0.89248514
H    2.35540297  -2.12452027  -1.62825323
H    2.53497759  -3.75410594  -1.02387666
H    3.89677370  -2.65951154  -1.00293080
C    2.43001336  -2.25834770   0.51453816
N    2.12832765  -1.90306387   1.56213097
C   -4.00638875   0.18586830   1.66565525
H   -3.52826392   0.13877850   2.62173024
H   -5.06251666   0.29294480   1.79992197
H   -3.62941187   1.02508355   1.11929887
C   -3.71706077  -1.10831263   0.88272163
N   -3.50164294  -2.07188915   0.29979197
C   -2.13743126  -2.44835938  -2.79349682
H   -1.65371900  -2.04290271  -3.65751506
H   -2.58239320  -1.65576064  -2.22896586
H   -2.89633726  -3.13753965  -3.10007685
C   -1.10094356  -3.18076048  -1.92121138
N   -0.32923136  -3.72606639  -1.27175522
C   -2.10929614   1.60126244  -4.12255513
H   -2.04698367   2.64752600  -4.33784541
H   -2.76388655   1.13071683  -4.82611559
H   -1.13538008   1.16385745  -4.19371329
C   -2.65857070   1.40219483  -2.69767986
N   -3.06753057   1.25397994  -1.63679545
C    0.59189655   0.72268542   4.04026546
H    1.38571843   1.39832968   4.28161967
H    0.94700415  -0.01222272   3.34837840
H    0.25222546   0.23841498   4.93189587
C   -0.57283263   1.50496992   3.40541360
N   -1.44002645   2.08741629   2.93273754
C   -0.37873794  -0.04809557   0.23257490
H   -1.17040099   0.66480697   0.33227325
H    0.43267562   0.22806420   0.87307697
H   -0.73589930  -1.01850320   0.50760925
C    0.10688233  -0.07494442  -1.22860685
N    0.46844869  -0.09493460  -2.31652307
C   -0.91103195   3.75511265   0.11124919
H   -1.16354453   4.75019543   0.41282478
H   -0.11891495   3.38556161   0.72840539
H   -1.76808767   3.12286941   0.21431745
C   -0.45413857   3.76477220  -1.35938167
N   -0.11396068   3.77196418  -2.45433320
