60
Energy:   -252.04182536
C    3.15911365   2.37312535  -3.28167980
H    2.45559039   1.85546535  -3.89972780
H    4.07421475   2.50866252  -3.81937743
H    2.76024173   3.32811765  -3.01003666
C    3.42867759   1.54862008  -2.00923084
N    3.62938019   0.93473843  -1.06183476
C    1.64225451  -2.08195900  -1.36078615
H    2.31703309  -1.57844760  -0.70044509
H    2.02186574  -3.05739635  -1.58285902
H    0.68422714  -2.17016658  -0.89248915
C    1.50356437  -1.27578399  -2.66556463
N    1.40030325  -0.67555006  -3.63703153
C    4.72517019  -0.89195841   1.54934192
H    5.26394061  -0.28763839   0.84975352
H    4.11697620  -1.59484719   1.01929803
H    5.41712909  -1.41818198   2.17318543
C    3.82918310   0.00727708   2.42122646
N    3.16207998   0.67679878   3.07038413
C   -3.39034211  -1.32845269  -1.13687216
H   -4.11283934  -1.06136628  -1.87954490
H   -2.88585669  -0.44810670  -0.79718922
H   -3.88393819  -1.79756106  -0.31152415
C   -2.36615689  -2.30473394  -1.74475336
N   -1.60360443  -3.03161970  -2.19734854
C   -0.62504093  -4.89103137   0.52187399
H   -0.49736987  -5.75790764   1.13597969
H    0.32624740  -4.43219620   0.35035170
H   -1.05680706  -5.17756058  -0.41427670
C   -1.55651710  -3.89136754   1.23224318
N   -2.25004344  -3.14707238   1.76114533
C   -1.37991302   1.06675774  -3.24123205
H   -1.11305319   0.87430083  -4.25939036
H   -2.42766155   1.27513868  -3.18040871
H   -1.15171327   0.20851921  -2.64436474
C   -0.58445266   2.27906310  -2.72242716
N    0.00780374   3.18167955  -2.33615334
C   -3.34491630   0.17039054   2.26627142
H   -3.73006308  -0.33003689   3.13006220
H   -2.76173485  -0.51498144   1.68742451
H   -4.15754529   0.53601608   1.67394450
C   -2.46035831   1.35082992   2.70867400
N   -1.80176469   2.22972070   3.03806283
C    1.07086883   2.29295944   0.93208789
H    2.11096092   2.04543383   0.88919627
H    0.80680170   2.55113982   1.93633415
H    0.87508272   3.12385785   0.28697183
C    0.23575712   1.08174981   0.47693994
N   -0.38602150   0.17994918   0.13806161
C   -2.13391424   4.38922257   0.21870005
H   -2.83103783   5.17433022   0.42491563
H   -1.45465831   4.70676198  -0.54463421
H   -1.58692692   4.15522312   1.10805274
C   -2.89545238   3.13901715  -0.25946944
N   -3.46245213   2.20818238  -0.61548836
C    0.18448562  -1.06554335   3.49912872
H   -0.85064745  -1.29508739   3.35522163
H    0.36651651  -0.04878566   3.21990183
H    0.44073570  -1.20401140   4.52872164
C    1.04350798  -1.99925370   2.62627963
N    1.68308918  -2.69444351   1.97640380
