60
Energy:   -251.77560683
C   -1.46418390   3.25005913  -2.64832281
H   -1.73158697   4.23928021  -2.95627969
H   -1.98598388   2.53579361  -3.25035989
H   -0.40953246   3.11281924  -2.76568823
C   -1.84623183   3.05185116  -1.16969068
N   -2.13068389   2.90427632  -0.06878185
C   -0.31485619  -1.15800676   3.63250571
H   -0.90514391  -2.00654772   3.35603001
H    0.18879890  -1.35915300   4.55487810
H    0.40694052  -0.96113171   2.86755550
C   -1.22901927   0.06940744   3.80385407
N   -1.90965523   0.98327310   3.93143071
C    3.42174150  -1.28219867   2.78030239
H    2.97623643  -0.45734784   3.29609936
H    4.38264116  -1.48999659   3.20266591
H    2.79532092  -2.14416782   2.87779867
C    3.58153621  -0.92970173   1.28972815
N    3.70051063  -0.66725173   0.17992787
C    2.69059233  -2.59768298  -2.30871357
H    2.94878296  -2.90188754  -1.31589064
H    2.83172462  -1.54152119  -2.40619715
H    3.31561806  -3.10744174  -3.01184082
C    1.21629340  -2.94626834  -2.58535578
N    0.11861084  -3.20580599  -2.79132848
C   -1.27015363  -4.26830725   0.06097056
H   -1.94874799  -4.53329589   0.84467388
H   -1.02946534  -5.13927379  -0.51207877
H   -1.72656244  -3.53826061  -0.57434195
C    0.01699358  -3.68410136   0.67216246
N    0.97533318  -3.24913351   1.12722261
C   -1.70854158  -0.99248191  -4.44773319
H   -1.80938376  -2.05527890  -4.51979988
H   -0.67067660  -0.73383680  -4.41878334
H   -2.16723768  -0.53223055  -5.29783064
C   -2.39697567  -0.49752138  -3.16217006
N   -2.90954614  -0.12900076  -2.20500987
C   -4.18183462   0.55952304   1.08729181
H   -5.20392921   0.45363404   1.38563784
H   -4.13881495   0.84693594   0.05751406
H   -3.71114904   1.31025825   1.68708412
C   -3.45013271  -0.78223559   1.27675452
N   -2.90534738  -1.78123587   1.41781811
C   -0.19147287   3.72844510   2.48135092
H    0.05687125   4.35289973   3.31398638
H   -1.18226919   3.34434043   2.60659208
H   -0.14239653   4.30115027   1.57885472
C    0.80647185   2.55825144   2.40164439
N    1.54948705   1.68698906   2.34229925
C   -0.05702087  -0.11560934  -0.09110345
H   -0.77554497  -0.89760264  -0.22190777
H   -0.52406470   0.72225553   0.38297631
H    0.74711567  -0.46869195   0.52012171
C    0.49195620   0.31215316  -1.46487323
N    0.90069457   0.63064178  -2.48770729
C    3.39506892   2.53798209  -0.70522657
H    4.28894714   3.06997727  -0.95595160
H    3.24510573   1.74270584  -1.40518787
H    3.48588467   2.13278468   0.28091067
C    2.19367845   3.50009310  -0.75624946
N    1.29918864   4.21642849  -0.79423832
