60
Energy:   -253.05825894
C   -3.89907844   0.15056003   1.15569291
H   -3.12525048  -0.31393637   0.58094639
H   -4.31194379   0.96838401   0.60287719
H   -4.66782786  -0.56439676   1.36247835
C   -3.31216922   0.67103670   2.48092558
N   -2.87518863   1.05855524   3.46762153
C    1.37313808  -3.64500673   2.05600497
H    0.61685401  -3.03072593   2.49826471
H    2.33585691  -3.21946134   2.24831370
H    1.32663328  -4.62724214   2.47784618
C    1.14295805  -3.72789458   0.53556202
N    0.97157857  -3.78960835  -0.59647687
C    1.22400169   2.70067642  -1.66566633
H    2.15422362   2.74631121  -2.19245360
H    0.59740058   3.50998539  -1.97757841
H    0.73865003   1.77120645  -1.87878232
C    1.48555873   2.80793866  -0.15183585
N    1.68029983   2.88780027   0.97527975
C   -0.54134094  -2.24762632  -3.23126325
H    0.23727229  -2.96051585  -3.40576292
H   -1.42065258  -2.54197959  -3.76517924
H   -0.75748360  -2.20465903  -2.18420296
C   -0.08532585  -0.85978793  -3.71865923
N    0.25419811   0.17352084  -4.08154769
C    0.19990121   0.05992849   2.30074388
H    1.23165422  -0.16063989   2.47888845
H   -0.41114618  -0.59954474   2.88092940
H   -0.00196288   1.07254874   2.58136855
C   -0.11506756  -0.13088598   0.80542301
N   -0.34957613  -0.27295602  -0.30791135
C    2.90274351  -0.90230890  -1.69315820
H    2.65816566  -1.87942367  -2.05416868
H    3.78293154  -0.54903915  -2.18850515
H    2.08997244  -0.23514694  -1.89114102
C    3.15772321  -0.96465299  -0.17569368
N    3.34756718  -1.01107101   0.95412763
C    5.05258337   2.05202479   1.53649780
H    4.28520424   2.65104158   1.98057927
H    6.01017085   2.46810368   1.77059960
H    4.99353021   1.05489523   1.92009193
C    4.86381758   2.02616698   0.00832934
N    4.72327288   2.00691466  -1.12946155
C   -2.51797576   1.55979194  -2.52666567
H   -2.24690695   1.71164123  -3.55056199
H   -1.64487871   1.63100388  -1.91223139
H   -3.22458916   2.30660886  -2.23025196
C   -3.14772535   0.16388993  -2.36396030
N   -3.61660255  -0.87542256  -2.24281875
C   -1.13586641   4.02699137   2.75602612
H   -1.69804814   3.56555999   3.54084009
H   -1.25857606   5.08875058   2.80611412
H   -0.10027983   3.78198207   2.86751589
C   -1.64060625   3.51559739   1.39392704
N   -2.01640801   3.13484133   0.37978237
C   -2.67977383  -3.90263100  -0.50151709
H   -3.23770793  -4.79290179  -0.29896426
H   -1.78735574  -4.15469074  -1.03532879
H   -3.27298066  -3.23671159  -1.09274978
C   -2.30740569  -3.21695391   0.82618352
N   -2.03016069  -2.70643616   1.81471697
