60
Energy:   -254.66877583
C    3.00366745   1.28573567  -3.18874764
H    3.34396515   0.33222383  -3.53503195
H    3.62435173   2.05576854  -3.59703613
H    1.99226323   1.43898252  -3.50255649
C    3.07623792   1.32924740  -1.65107399
N    3.13026993   1.36164386  -0.50620606
C   -0.05305140  -3.37120559   3.11632351
H   -0.51996249  -4.31464300   3.30820907
H    0.66255684  -3.16460591   3.88451652
H    0.44126988  -3.40422682   2.16792741
C   -1.12244443  -2.26318219   3.09950945
N   -1.91865615  -1.43820841   3.08699061
C    2.97576384   1.66087430   3.07664005
H    2.74817940   2.09895252   2.12732821
H    4.02803972   1.72948355   3.25804381
H    2.44638219   2.18262479   3.84633517
C    2.55073774   0.18068978   3.07406804
N    2.23428649  -0.92137487   3.07215306
C    3.07559425  -2.25300554   0.08586150
H    2.14154174  -2.58682161   0.48712567
H    3.27494979  -1.25838234   0.42627468
H    3.85794124  -2.90550448   0.41308834
C    3.00701369  -2.26496317  -1.45256423
N    2.95595235  -2.27386616  -2.59799211
C   -3.48907111  -1.53599904   0.09980460
H   -2.72776428  -2.20187505   0.44897679
H   -4.44570468  -1.88346056   0.42998910
H   -3.31165421  -0.55552324   0.48979120
C   -3.46329431  -1.48870261  -1.43925310
N   -3.44410230  -1.45348827  -2.58515152
C   -0.38462930  -3.28131892  -3.15092474
H   -0.02753696  -4.20855055  -3.54794709
H    0.25406238  -2.48570219  -3.47336240
H   -1.38016451  -3.10346615  -3.50046320
C   -0.38498740  -3.34786702  -1.61236333
N   -0.38525403  -3.39741510  -0.46683442
C   -2.64570180   1.93659603  -3.17695751
H   -3.62676890   2.08636972  -3.57692671
H   -2.27572933   0.98191854  -3.48777957
H   -1.99342430   2.70562389  -3.53476937
C   -2.70497443   1.98823068  -1.63896511
N   -2.74910561   2.02667502  -0.49385986
C   -2.89667911   1.76788055   3.09243305
H   -3.17132469   1.34522810   2.14859255
H   -3.48048928   2.64613159   3.27337471
H   -3.07646285   1.05387806   3.86882042
C   -1.40238773   2.13978965   3.07301963
N   -0.28981987   2.41669288   3.05856546
C    0.00147172   0.00328252   0.52957894
H   -0.98290585   0.22165596   0.88764881
H    0.68234517   0.75075304   0.87971927
H    0.30796387  -0.95593025   0.89134203
C   -0.00282885  -0.00626149  -1.01038548
N   -0.00603081  -0.01336743  -2.15695899
C    0.41413168   3.79051041   0.05589044
H    0.59111759   4.79650686   0.37455534
H    1.17408924   3.15125450   0.45428155
H   -0.54359519   3.46820140   0.40770749
C    0.44404430   3.72656212  -1.48249048
N    0.46631561   3.67894971  -2.62788500
