60
Energy:   -252.48146662
C   -3.97182109   0.20965997  -2.40044831
H   -2.95785422   0.13543871  -2.73400876
H   -4.46570233   0.99569781  -2.93254316
H   -4.47603832  -0.71625984  -2.58303140
C   -3.99465976   0.51780912  -0.89176594
N   -4.01166418   0.74724017   0.23151666
C    2.44026787   2.56671546   2.86569203
H    3.20321129   1.99241533   3.34838953
H    2.39955942   3.54321720   3.30122190
H    2.66309282   2.65045936   1.82250696
C    1.08008563   1.86731593   3.04553802
N    0.06736813   1.34658119   3.17944154
C    1.62510237   3.02264309  -2.78600036
H    2.20502651   2.52648823  -3.53594605
H    2.11307854   2.92972126  -1.83829583
H    1.52812489   4.05820183  -3.03722248
C    0.22769678   2.38004155  -2.70905309
N   -0.81273520   1.90159549  -2.65176234
C    1.62630711  -2.05830631   2.45935822
H    0.80187033  -1.43114410   2.72744729
H    1.68988646  -2.87665426   3.14577164
H    1.48074193  -2.43453463   1.46831730
C    2.93088039  -1.24165275   2.51194635
N    3.90219450  -0.63361706   2.55110061
C    0.46475034  -1.59655760  -3.45640689
H   -0.56789722  -1.82996135  -3.61152585
H    1.03421897  -1.91815190  -4.30327268
H    0.57673507  -0.53975765  -3.33177793
C    0.97020835  -2.31877852  -2.19366814
N    1.34654482  -2.85650482  -1.25350175
C   -1.76448474   3.31513365   0.62213771
H   -2.45617352   4.11148452   0.80183772
H   -1.78781082   2.63021713   1.44387024
H   -2.03623399   2.80277701  -0.27705198
C   -0.34427951   3.89216307   0.47498419
N    0.71312784   4.32178769   0.36542171
C    4.48389479  -0.81727274  -0.96270835
H    3.91392298  -1.64142422  -0.58746622
H    4.46531666  -0.01771895  -0.25188652
H    5.49515093  -1.12724578  -1.12450091
C    3.87551277  -0.33574015  -2.29297061
N    3.42254470   0.02278275  -3.28341133
C   -0.69445942  -0.27247890   0.09678340
H   -1.28254200   0.27221370   0.80556336
H   -0.60556885  -1.29039073   0.41435713
H   -1.16880732  -0.23801982  -0.86170799
C    0.70671280   0.35900884  -0.00088777
N    1.74994920   0.82918017  -0.07360840
C   -1.55092199  -4.45730521   0.12470723
H   -1.43972509  -5.41700057  -0.33520607
H   -2.24261244  -4.52948406   0.93788226
H   -0.60217510  -4.12565615   0.49184119
C   -2.08093245  -3.44950264  -0.91212587
N   -2.47554933  -2.69914781  -1.68409524
C   -3.15575638  -0.07515389   3.42077884
H   -2.63309830   0.77978912   3.04554402
H   -3.20187683  -0.02468073   4.48859177
H   -4.14824317  -0.09016037   3.02122425
C   -2.41317397  -1.35668050   2.99904325
N   -1.86028761  -2.31083532   2.68504194
