60
Energy:   -252.84836598
C    2.26091763   4.12256383  -1.12001353
H    2.92404855   4.96222977  -1.13090796
H    1.42480037   4.33659099  -0.48755848
H    1.91570735   3.92779321  -2.11389147
C    3.00673473   2.88635537  -0.58415396
N    3.56202947   1.96594198  -0.18518215
C   -0.49474316  -3.24867995   2.10512163
H   -0.57901319  -4.31485780   2.07250992
H   -1.38423653  -2.80820602   1.70551764
H   -0.36431758  -2.93204991   3.11884432
C    0.71903505  -2.80384380   1.26818480
N    1.62274810  -2.47264307   0.64504728
C    3.24039418   0.19094228   2.63304051
H    3.27273391  -0.27269162   1.66924700
H    4.16791608   0.02488134   3.14001780
H    3.08024440   1.24258743   2.51774256
C    2.08940488  -0.41635182   3.45645868
N    1.23244102  -0.86850989   4.06953094
C    2.75364024  -0.85779223  -2.24671828
H    3.35309770  -1.41573906  -2.93537367
H    1.92606032  -1.45643586  -1.92791369
H    3.34533856  -0.58609082  -1.39761845
C    2.23036183   0.41578882  -2.93647985
N    1.84075727   1.36402780  -3.45003870
C   -2.96552342  -2.11645574  -0.86811424
H   -2.98422618  -3.16869209  -0.67485521
H   -3.84239280  -1.83857430  -1.41472296
H   -2.93978881  -1.58384490   0.05955085
C   -1.71360537  -1.76852437  -1.69470057
N   -0.78149547  -1.50947365  -2.31013166
C    1.16261900  -4.46520613  -2.31578766
H    1.96216041  -4.11318857  -1.69795488
H    0.88825594  -3.70172015  -3.01343597
H    1.48058224  -5.33722750  -2.84811952
C   -0.05087678  -4.81563909  -1.43475148
N   -0.95437954  -5.07655236  -0.77878000
C   -1.57604467   1.68280157  -3.78491436
H   -1.57131502   2.13792653  -4.75328365
H   -2.54878292   1.28587145  -3.58211919
H   -0.85564078   0.89207908  -3.75892855
C   -1.21967838   2.73709568  -2.72045817
N   -0.95434748   3.52206557  -1.92792215
C   -1.50882356   0.89173797   4.68260015
H   -2.34897914   1.36170580   5.14968583
H   -0.76606917   1.62899662   4.45974440
H   -1.09663660   0.15887011   5.34434459
C   -1.96188057   0.20901496   3.37867200
N   -2.29920211  -0.29930336   2.40783822
C   -3.09190444   3.02273818   0.89877104
H   -2.83292641   2.56938933   1.83274395
H   -3.96480838   3.62830728   1.02614397
H   -2.28043745   3.63317968   0.56145579
C   -3.37621643   1.92507340  -0.14329360
N   -3.58789962   1.10781208  -0.91915810
C    0.23881295   0.69514725   0.12224268
H    1.16916064   0.16723366   0.14794469
H    0.11091814   1.14583163  -0.83974776
H   -0.56407552   0.01204908   0.30567136
C    0.23943987   1.78945227   1.20579985
N    0.23990664   2.60421209   2.01255741
