60
Energy:   -253.08853896
C   -0.93892503   0.23162206  -3.16851614
H   -0.61347288  -0.50002654  -2.45881803
H   -0.23936405   0.28049394  -3.97667768
H   -1.90193226  -0.04170040  -3.54641958
C   -1.02816734   1.60769258  -2.48290276
N   -1.09461229   2.63223964  -1.97243243
C   -3.15512968  -1.40221804  -0.30607323
H   -2.26576105  -1.38364634  -0.90069810
H   -4.00994854  -1.47798579  -0.94516873
H   -3.12633362  -2.24505786   0.35247891
C   -3.24630047  -0.10683690   0.52174051
N   -3.31418126   0.85763323   1.13808548
C   -1.71782061   0.18166854   4.16063159
H   -2.55046915   0.74459185   3.79359762
H   -0.81341911   0.72470614   3.98155846
H   -1.83342683   0.01803464   5.21170639
C   -1.65470457  -1.17458037   3.43385428
N   -1.60771182  -2.18436933   2.89273553
C   -0.32810978  -4.11148195   0.03643633
H   -0.51334797  -3.30293127   0.71233040
H    0.66654618  -4.47780156   0.18261618
H   -1.02887606  -4.89863860   0.22139612
C   -0.48448700  -3.61504608  -1.41294202
N   -0.60091695  -3.24542701  -2.49207008
C   -4.48422840   3.22303340  -1.25044428
H   -5.35760274   3.77471524  -1.52930731
H   -3.61078805   3.79202089  -1.49180356
H   -4.50491298   3.03044824  -0.19812199
C   -4.45455300   1.88728361  -2.01627184
N   -4.43245831   0.89275717  -2.58646527
C    2.49069846  -1.78846741  -2.47242249
H    3.32297781  -1.22594239  -2.84090161
H    1.67486307  -1.12666571  -2.26912414
H    2.19254359  -2.50699717  -3.20707734
C    2.89615229  -2.51643822  -1.17732956
N    3.19803109  -3.05844557  -0.21307401
C    2.09465866   4.16575573  -1.81800149
H    2.59234649   4.47858721  -0.92394139
H    1.04713477   4.36619253  -1.73187438
H    2.49281095   4.70182809  -2.65406385
C    2.31297028   2.65548693  -2.02543392
N    2.47551320   1.53102317  -2.17987678
C    0.10868419   1.91182326   1.15717543
H    0.63616744   1.97753171   2.08580021
H   -0.92214229   2.15152176   1.31478413
H    0.53213149   2.60117640   0.45690140
C    0.22367479   0.48010978   0.60168133
N    0.30929052  -0.58586598   0.18809073
C    1.85327349  -2.62845232   2.87888432
H    2.85768083  -2.99530175   2.91745316
H    1.48182750  -2.71029030   1.87876957
H    1.23728655  -3.20554227   3.53647566
C    1.82884296  -1.15209708   3.31635244
N    1.81065333  -0.05288350   3.64206735
C    4.03825750   0.29538100   0.87846701
H    3.14416971  -0.26900678   0.71423043
H    4.52835906  -0.06140849   1.76017037
H    4.69043890   0.18307699   0.03766601
C    3.68104133   1.78282411   1.05597641
N    3.41507766   2.89029312   1.18814023
