60
Energy:   -251.70124290
C    0.13013848  -4.70908656   1.57537898
H   -0.77619897  -4.17913607   1.36896894
H   -0.09813939  -5.61958773   2.08897018
H    0.62926520  -4.93369826   0.65596548
C    1.04476863  -3.83810354   2.45653746
N    1.72575235  -3.18961709   3.11260001
C    3.84208527  -1.24410247   1.34414168
H    4.55770092  -0.93949540   0.60928867
H    3.21542501  -2.00936302   0.93600900
H    4.35337997  -1.62288167   2.20437604
C    2.97817231  -0.03594476   1.75109298
N    2.33494984   0.86358356   2.05408672
C   -2.28902982   1.88916954  -3.52474994
H   -2.75504036   2.53161799  -4.24238100
H   -2.67043636   2.10808282  -2.54929870
H   -2.49968441   0.86904062  -3.76941446
C   -0.76619487   2.11767599  -3.54368429
N    0.36762497   2.28780943  -3.55778178
C   -3.56015519   1.63459127   1.11047080
H   -4.44530203   1.74926722   0.52033125
H   -3.72273823   2.05210443   2.08214389
H   -3.32589621   0.59472321   1.20372447
C   -2.38936312   2.36527074   0.42713089
N   -1.51765520   2.90929482  -0.08164673
C    0.63530212   3.69610272   2.62698089
H    0.52782546   4.75926242   2.68212076
H    0.69429376   3.39628774   1.60153950
H    1.52854491   3.40099794   3.13681377
C   -0.58051977   3.02218604   3.28971270
N   -1.48575443   2.52042444   3.78314665
C   -2.62563700  -2.88690124  -1.38590200
H   -3.38398039  -3.62898785  -1.52418771
H   -2.16269468  -3.02366087  -0.43097776
H   -1.88908081  -2.98177565  -2.15621552
C   -3.26057169  -1.48546891  -1.45257550
N   -3.73330943  -0.44203884  -1.50221695
C    1.94371852  -0.93264347  -4.10925860
H    2.31846590  -1.37196792  -5.01006858
H    2.41783889  -1.38924269  -3.26567925
H    2.15214079   0.11685977  -4.11073793
C    0.42200856  -1.15368367  -4.02476001
N   -0.71097368  -1.31825814  -3.96184697
C   -0.38973174  -0.62555665   4.04686363
H   -1.08017858  -0.13502745   4.70074776
H    0.36829693   0.06644995   3.74450871
H    0.06275130  -1.44903613   4.55876179
C   -1.13823773  -1.14233025   2.80417146
N   -1.69553446  -1.52709168   1.87893065
C    2.33108255   3.11338956  -0.98551722
H    2.76183470   3.51982578  -0.09435934
H    1.27874244   2.98067266  -0.84457183
H    2.49978654   3.78469552  -1.80147455
C    2.98289808   1.75325719  -1.29660634
N    3.46820437   0.74057681  -1.52822633
C    0.02928981  -0.01920253  -0.57195160
H    0.39743343   0.56682938  -1.38800127
H    0.32080578   0.43381293   0.35254530
H   -1.03825448  -0.07071855  -0.62288664
C    0.61633990  -1.44051197  -0.65472633
N    1.05342538  -2.49874146  -0.71635587
