60
Energy:   -252.49580780
C   -0.39253618  -2.37812904   2.97968779
H    0.48969097  -2.07366213   3.50301880
H   -1.08952421  -2.80206492   3.67206424
H   -0.83534145  -1.52878330   2.50278698
C   -0.02183278  -3.42860788   1.91635661
N    0.25417275  -4.21073712   1.12465821
C    2.67485083   3.73131162  -2.10545369
H    3.49193882   3.04915602  -2.21468346
H    2.93322859   4.67098679  -2.54721223
H    1.81014087   3.33324803  -2.59404467
C    2.37151953   3.93359031  -0.60923397
N    2.14567559   4.08419599   0.50476962
C   -1.28158026   3.73059349   0.72630724
H   -0.60301692   4.54625816   0.86466593
H   -1.16229745   3.02808056   1.52452167
H   -2.28613413   4.09904539   0.72259294
C   -0.98407512   3.03744304  -0.61631450
N   -0.76256901   2.52136103  -1.61595742
C    0.61486392   0.33192422  -4.17851151
H    0.68110167   1.24814566  -3.62983035
H    0.72257827   0.53358079  -5.22380158
H    1.39258703  -0.33088934  -3.86114097
C   -0.75483937  -0.32302959  -3.92054177
N   -1.77464574  -0.81067247  -3.72847157
C    2.81001773   1.59798884   2.63708119
H    3.01843549   2.61783010   2.88484321
H    3.08735329   1.41416254   1.62012890
H    3.36969846   0.95281937   3.28160655
C    1.30537150   1.32331350   2.81650581
N    0.18509399   1.11880523   2.95009560
C    3.51595560  -3.08810181  -0.13834178
H    2.76693531  -3.83564194  -0.29662170
H    4.47032842  -3.55812475  -0.02366809
H    3.54287427  -2.42657624  -0.97891206
C    3.18165813  -2.28782203   1.13421371
N    2.93275847  -1.69197736   2.08168912
C   -1.34594261  -3.86209535  -1.90318761
H   -1.33672260  -4.92259626  -2.04514881
H   -2.07733078  -3.42220482  -2.54852997
H   -1.58932178  -3.64064076  -0.88504050
C    0.04372622  -3.28760836  -2.23543035
N    1.07839783  -2.85987668  -2.48280017
C   -3.18545534   0.23205189   3.62451660
H   -3.13532906  -0.75361597   3.21118089
H   -3.90463310   0.25051891   4.41656547
H   -2.22523496   0.50719298   4.00814830
C   -3.60452165   1.22810236   2.52730791
N   -3.91653557   1.96970721   1.71038618
C   -3.77890339   0.25467083  -1.31598218
H   -4.23644593  -0.28601075  -2.11799118
H   -2.99730973   0.87412943  -1.70364375
H   -4.51267772   0.86619058  -0.83378105
C   -3.18920721  -0.73884224  -0.29775324
N   -2.75015159  -1.47855789   0.46036449
C    0.34037797  -0.35436265  -0.29389572
H   -0.07579221   0.33624039   0.40950317
H    0.46729119  -1.30784961   0.17477768
H   -0.31978833  -0.45303928  -1.13016271
C    1.70684014   0.16601517  -0.77720519
N    2.72423334   0.55346012  -1.13705106
