13
Energy:   -175.40690242
C    0.69898117  -2.75829762   3.99217718
H    0.73415805  -3.82603818   4.05211764
H    0.05374409  -2.37920119   4.75693472
H    1.68330376  -2.36089807   4.12664547
C    0.16032215  -2.33912240   2.61169226
N   -0.24073397  -2.02702739   1.58385850
C   -0.51063853   3.15899312  -3.79780664
H   -1.02267173   2.75477127  -4.64593804
H    0.46438873   3.48658015  -4.09260768
H   -1.06345681   3.98879199  -3.40957362
C   -0.38135859   2.07499796  -2.71160168
N   -0.28510379   1.26791430  -1.90287272
Na  -0.29093452  -1.04146394  -0.56302539
