13
Energy:   -177.83577873
C    0.11293357  -3.95916044  -2.77074559
H    1.08212125  -4.29912172  -2.47074265
H    0.05645352  -3.94036877  -3.83908821
H   -0.63281743  -4.62290160  -2.38577518
C   -0.12735959  -2.54162269  -2.21897941
N   -0.30626878  -1.48620140  -1.80816441
C   -0.03641878   3.65821713   3.12642995
H    0.37675758   3.12044986   3.95407229
H   -1.06313651   3.88471427   3.32504728
H    0.50852413   4.56803809   2.98443658
C    0.06231189   2.79674982   1.85374526
N    0.13582136   2.15534825   0.90617365
Na  -0.16892219   0.66585921  -0.65640956
