13
Energy:   -173.54209151
C   -0.17121852   3.39722941  -2.56602403
H   -0.40410333   3.21344239  -3.59407422
H    0.84140277   3.11050101  -2.37293328
H   -0.29378622   4.43866574  -2.35321748
C   -1.11705202   2.57552862  -1.67058737
N   -1.82126805   1.96373503  -1.00389408
C    1.14324503  -3.39591701   2.53901347
H    2.17638240  -3.27906892   2.28628063
H    0.83986666  -4.40314822   2.34319229
H    1.00291723  -3.17652555   3.57683551
C    0.29490324  -2.43018889   1.69090652
N   -0.33672579  -1.71116041   1.05945235
Na  -2.15456339  -0.30309319   0.06504968
