13
Energy:   -180.55564542
C   -2.57378250  -3.57056981   0.23296951
H   -2.76826976  -3.93900490   1.21853050
H   -2.46624023  -4.39458177  -0.44107651
H   -3.38861024  -2.95402672  -0.08456705
C   -1.27590155  -2.74169712   0.24163611
N   -0.30957019  -2.12456373   0.24808878
C    1.98587017   3.86416821  -0.65431061
H    2.88624759   3.88597830  -1.23201729
H    2.03783709   4.60573990   0.11528016
H    1.14936916   4.06760488  -1.28974643
C    1.81914208   2.47266989  -0.01592658
N    1.69500543   1.43663615   0.45937936
Na   1.20890296  -0.60835328   1.20176005
