13
Energy:   -177.26299802
C    4.65835910  -0.82822797   0.47258358
H    5.32495462  -0.62884610  -0.34031092
H    4.97562881  -1.71209306   0.98543983
H    4.66518670  -0.00054695   1.15066662
C    3.23249949  -1.03432613  -0.07151927
N    2.17088220  -1.18777557  -0.47662858
C   -4.51552879   1.48445833  -0.06523708
H   -4.21621298   2.19202350   0.67951910
H   -5.35274242   0.92247062   0.29273252
H   -4.79033835   2.00304758  -0.95991242
C   -3.34583558   0.52855303  -0.36467469
N   -2.47494583  -0.18316191  -0.58761961
Na  -0.33190697  -1.55557537  -0.71503908
