13
Energy:   -173.09657254
C   -0.04603382   3.48142599   0.44002361
H    0.69611867   3.09112201  -0.22463620
H    0.43044799   3.88767513   1.30767896
H   -0.59980387   4.25095837  -0.05601846
C   -1.00294304   2.35092349   0.86179230
N   -1.71540545   1.50921299   1.17581827
C    0.95166442  -3.32265229  -1.22733777
H    0.23465146  -3.79980905  -1.86225039
H    1.43029400  -4.05760939  -0.61443412
H    1.68523614  -2.82632176  -1.82769401
C    0.23896209  -2.29245756  -0.33159550
N   -0.29167719  -1.52543076   0.33532533
Na  -2.01151140  -0.74703717   2.02332800
