13
Energy:   -175.09318681
C   -0.36075244  -2.11671872   3.93066063
H    0.57557156  -2.18242141   4.44435382
H   -1.02088992  -2.87647937   4.29381536
H   -0.79541822  -1.15431254   4.10311092
C   -0.13266040  -2.31381439   2.42045293
N    0.03716450  -2.46056107   1.29603464
C    0.19411452   2.91824358  -3.44847503
H    0.60240248   3.59393297  -2.72622510
H   -0.79721736   3.22778086  -3.70605389
H    0.80744730   2.92001030  -4.32524117
C    0.15052111   1.49770838  -2.85536512
N    0.11806383   0.44005535  -2.41376783
Na   0.62165302  -1.49342392  -1.01330017
