13
Energy:   -173.16853069
C    1.36792150   0.65475052   4.54644820
H    2.11596265   1.39655336   4.73369980
H    1.57198079  -0.21437755   5.13625774
H    0.40603182   1.04458171   4.80663848
C    1.38201070   0.27693750   3.05357888
N    1.39250075  -0.00436147   1.94206981
C   -1.46335183  -0.45660928  -4.56870491
H   -1.21334497   0.47519449  -5.03145589
H   -2.46999423  -0.71996040  -4.81813698
H   -0.79828395  -1.21833270  -4.91850663
C   -1.33156260  -0.32236888  -3.04023799
N   -1.23343954  -0.22242080  -1.90222490
Na   0.27356890  -0.68958651   0.06057440
