72
Energy:   -419.40227430
O    3.30429487   1.38443952  -0.62928464
H    3.04345250   0.96032149  -1.46025301
C    3.97051667   0.41179481   0.15979366
H    4.25739117   0.90623081   1.09184584
H    4.88535688   0.02942753  -0.31941402
H    3.32629536  -0.44499479   0.41211847
O   -1.23642104   1.37979908  -0.55157082
H   -1.81859702   1.57361487   0.19804898
C   -0.16379332   0.58625941  -0.06959745
H    0.48212487   0.37716500  -0.92665896
H   -0.50043667  -0.37599216   0.34696046
H    0.43844808   1.10361840   0.69356853
O   -1.72800265   0.34466934  -3.10652902
H   -1.55266713   0.76842619  -2.25323490
C   -3.08805326   0.58138737  -3.43327160
H   -3.26846742   0.09738077  -4.39694869
H   -3.31933239   1.65271469  -3.54071949
H   -3.78374926   0.14776231  -2.69791202
O    1.84900408  -1.07530062   2.57514539
H    1.69871266  -0.15449459   2.83582147
C    2.52385952  -1.72036974   3.64331660
H    2.68518818  -2.75631012   3.33301706
H    1.93510217  -1.73049934   4.57392904
H    3.50621341  -1.27153061   3.85849467
O   -1.97481332  -3.10058689   0.23429072
H   -1.01375705  -3.14003807   0.34934605
C   -2.23211827  -2.66334484  -1.09052901
H   -3.31900493  -2.62453758  -1.20303047
H   -1.83464058  -3.35369859  -1.85092400
H   -1.83196870  -1.65723839  -1.29154507
O   -2.97673808   1.54751521   1.66777743
H   -2.97602682   0.60478452   1.89067114
C   -4.27297842   2.05393699   1.94315306
H   -4.25613713   3.11664021   1.68651432
H   -4.54790695   1.96366425   3.00571716
H   -5.05602201   1.56926786   1.33923592
O    2.25311000   3.26592280   1.16672657
H    2.68668688   2.69039799   0.51926571
C    1.34620486   4.09922298   0.46268989
H    0.86662712   4.74085335   1.20686786
H    0.55881199   3.52907149  -0.05472394
H    1.84753122   4.74647378  -0.27386671
O    1.37076220   1.60000371   3.24379197
H    1.71441702   2.26264426   2.62635199
C    0.08423576   2.02742552   3.66175621
H   -0.28815020   1.26979116   4.35659725
H   -0.62988071   2.10557446   2.82706600
H    0.10793188   2.99323665   4.19036258
O    0.79104277  -2.84632969   0.67007363
H    1.21586940  -2.27348201   1.32565821
C    1.56969728  -2.79577421  -0.51469431
H    1.07709849  -3.44640085  -1.24237323
H    2.59594265  -3.16625153  -0.36521414
H    1.62490832  -1.78330507  -0.94438643
O    2.30842394   0.15872231  -2.97412369
H    1.69053609  -0.55795930  -3.18150101
C    1.82177765   1.33904755  -3.59262306
H    2.52944307   2.13610609  -3.34891720
H    0.82978846   1.63713177  -3.21861693
H    1.76836319   1.25347904  -4.68925530
O    0.19589644  -1.64921325  -3.48621070
H   -0.53342825  -1.01490356  -3.42171272
C   -0.07229257  -2.50299513  -4.58696722
H    0.75883195  -3.21104247  -4.64515821
H   -0.12553638  -1.95972222  -5.54341742
H   -1.00288015  -3.07845294  -4.46193759
O   -2.80453428  -1.19839665   2.14832863
H   -2.65887709  -1.89886193   1.49521635
C   -1.85141517  -1.37130817   3.18476451
H   -2.02965078  -0.57422399   3.91165795
H   -0.81361457  -1.28163499   2.82740479
H   -1.95800650  -2.33673126   3.70377692
