72
Energy:   -416.33901355
O    0.66493081   1.13992432  -1.33525862
H    1.45819213   1.63702774  -1.08616435
C    0.59620793  -0.00649507  -0.50247201
H   -0.30287041  -0.55488742  -0.79642636
H    0.50692172   0.24822582   0.56519956
H    1.46119448  -0.67629299  -0.62875086
O   -0.19367242   1.49173144   3.01188502
H   -0.36601341   0.53852335   3.00110564
C   -1.23678789   2.12592999   2.28922599
H   -1.02705224   3.19878092   2.31129498
H   -2.22763480   1.96242479   2.74118372
H   -1.27863692   1.80786953   1.23572538
O    0.05671318   0.04600600  -3.88036655
H    0.25685088   0.40037945  -3.00128314
C    1.16437555   0.32817275  -4.72060447
H    0.92222366  -0.07773199  -5.70655021
H    2.09393214  -0.14963714  -4.37361803
H    1.34938246   1.40804875  -4.83203878
O    2.15281056   2.84231881   2.26750329
H    1.32800814   2.42610444   2.55886190
C    2.73833278   3.47320393   3.39519184
H    3.66616065   3.93684062   3.04927037
H    2.99050256   2.76185956   4.19717497
H    2.09948931   4.26337923   3.81978499
O   -2.93212112  -1.84487845  -1.35465157
H   -3.29323762  -1.14038490  -0.79634431
C   -2.97263265  -1.39243566  -2.69859655
H   -2.56236753  -2.19789601  -3.31373991
H   -2.36044427  -0.49184684  -2.86273823
H   -3.99658360  -1.18474035  -3.04668338
O   -3.67077977   0.46394805   0.10922154
H   -3.14557437   1.10645893  -0.39054074
C   -4.83369497   1.12883392   0.57622133
H   -5.41374653   0.39080511   1.13688064
H   -5.46453056   1.50812294  -0.24290237
H   -4.60194122   1.96634782   1.25271079
O    2.91068056   2.54607769  -0.42132774
H    2.73340637   2.73696982   0.51170888
C    4.07067873   1.73161153  -0.48118489
H    4.25601615   1.52611914  -1.53896942
H    3.94092696   0.76811154   0.03612505
H    4.96197780   2.23006120  -0.06898199
O    1.07011732  -3.12829673   1.21389810
H    0.53606036  -3.27940858   0.41993862
C    1.40920089  -4.39623786   1.75230443
H    2.01051165  -4.20752724   2.64578016
H    2.00978662  -5.00576566   1.05908731
H    0.52554191  -4.98077341   2.05270804
O   -0.50930292  -1.29846512   2.70420054
H    0.07688879  -1.95905835   2.30618152
C   -1.82532460  -1.55623172   2.24140783
H   -2.47248513  -0.80323005   2.69929095
H   -2.19395748  -2.55015483   2.53974317
H   -1.91687335  -1.46555412   1.14771055
O    3.32171967  -1.41395691   1.46326941
H    2.59298893  -2.04630400   1.37659796
C    3.01894570  -0.55469401   2.55071089
H    3.84986721   0.15105199   2.63424062
H    2.93143682  -1.09373605   3.50703365
H    2.09499839   0.02306761   2.39168192
O   -0.57238486  -3.35326771  -1.01860749
H   -1.42608388  -2.92448029  -1.17911481
C    0.13401901  -3.37967931  -2.24857894
H    1.09298642  -3.86581096  -2.04972541
H    0.33750665  -2.37212825  -2.64381428
H   -0.38771254  -3.95916681  -3.02624709
O   -1.98622922   2.09882923  -1.39776702
H   -1.05671232   1.82849795  -1.36112525
C   -2.22363431   2.65074588  -2.68289759
H   -3.27500815   2.94994250  -2.70697339
H   -2.05639349   1.92557323  -3.49464414
H   -1.61006731   3.54322723  -2.88237167
