72
Energy:   -416.34904230
O    2.02403462   0.18733343  -0.45940344
H    2.41641598  -0.53078073   0.05902900
C    0.66260168   0.30020320  -0.07691875
H    0.23595168   1.11342044  -0.67032645
H    0.53960121   0.55355474   0.98772260
H    0.08509677  -0.61399036  -0.28552257
O   -0.46619644   0.78155709   3.45195273
H   -0.69357258  -0.10208849   3.12653937
C   -1.47061800   1.17213099   4.37451607
H   -1.19896768   2.16937502   4.73116107
H   -1.53067688   0.50231896   5.24659525
H   -2.46936242   1.23433906   3.91471495
O    1.55169971   1.27440566  -3.05365137
H    1.82052834   0.92930684  -2.18932432
C    1.72924384   0.23742050  -4.00532023
H    1.42182049   0.64307932  -4.97300665
H    1.10736532  -0.64616618  -3.79243759
H    2.77803275  -0.08783926  -4.08913695
O    0.75929284   3.06283443   2.35699335
H    0.33363134   2.30309714   2.78129844
C    2.16067592   2.84465467   2.38950225
H    2.62454078   3.70960368   1.90765394
H    2.46349815   1.94221293   1.83571987
H    2.55609050   2.77221931   3.41477186
O   -1.45121206  -1.31555031  -2.71453668
H   -1.45092774  -0.35124248  -2.80691418
C   -2.79947474  -1.73418069  -2.57500126
H   -2.78144077  -2.82256005  -2.47209188
H   -3.41532796  -1.48446781  -3.45315024
H   -3.28453113  -1.31462091  -1.67975425
O   -2.83092844   1.07511549  -0.43721352
H   -2.28588037   1.29513914  -1.20723655
C   -2.58587484   2.05595129   0.55799683
H   -3.20760885   1.79296404   1.41809551
H   -2.86451686   3.07054662   0.23283185
H   -1.53553384   2.07318535   0.88854805
O    0.07598744   4.03726040  -0.22797735
H    0.30720313   3.80246989   0.68297600
C    1.27774849   4.07551468  -0.98086563
H    0.99905513   4.34138115  -2.00415945
H    1.79295209   3.10261175  -1.00919347
H    1.98655351   4.83345594  -0.61222243
O    0.54431283  -3.75802326   1.17716881
H    0.37572681  -3.69833136   0.22509796
C    0.46021293  -5.12576039   1.54426026
H    0.65263133  -5.17486359   2.61945756
H    1.21070334  -5.74984296   1.03429711
H   -0.53574980  -5.55619736   1.35568773
O   -1.03894055  -1.74993755   2.39259671
H   -0.51237488  -2.49327012   2.06303858
C   -2.18808730  -1.63760980   1.56835281
H   -2.76986965  -0.79577302   1.95348309
H   -2.82443338  -2.53580795   1.60123243
H   -1.93815111  -1.42714091   0.51668172
O    2.73271308  -1.95005117   1.29320719
H    2.06078080  -2.64703995   1.32692544
C    2.75563078  -1.31261065   2.56036074
H    3.51767594  -0.53050374   2.50485262
H    3.02974219  -1.99899584   3.37676483
H    1.79563535  -0.83646627   2.81427535
O    0.13352023  -3.30867142  -1.53123069
H   -0.42455853  -2.65837693  -1.98299219
C    1.45043973  -3.17400095  -2.04125094
H    2.06569180  -3.91364198  -1.52174998
H    1.88035678  -2.17812812  -1.85102479
H    1.51091748  -3.37796778  -3.12176808
O   -1.25758898   1.51775390  -2.84373028
H   -0.29776309   1.58412239  -2.95665839
C   -1.81207728   2.79538537  -3.11342329
H   -2.89352185   2.70269046  -2.98162609
H   -1.62147279   3.13267552  -4.14428828
H   -1.44907235   3.57120960  -2.42125169
