72
Energy:   -416.43506853
O   -3.58571755  -0.51283465   0.76391923
H   -3.50805492   0.33445043   0.30077802
C   -3.74958275  -1.52553647  -0.21593637
H   -3.83546576  -2.47305655   0.32287251
H   -2.88961691  -1.59853099  -0.89997430
H   -4.66194854  -1.39119590  -0.81786543
O    0.82728184   0.23965834   3.68996617
H    0.20434114  -0.12526591   3.04405715
C    1.99542316  -0.56487666   3.66345064
H    2.68629154  -0.13988922   4.39664350
H    2.49369397  -0.55887407   2.68137757
H    1.79801539  -1.61065890   3.94655310
O    3.12239982   0.82934684  -0.00269254
H    3.10745304  -0.13729505   0.05897861
C    4.45287105   1.22110184  -0.30086715
H    4.45171496   2.31249527  -0.36677802
H    4.80826110   0.82134162  -1.26350260
H    5.16848389   0.92719110   0.48290072
O    1.69074711   3.00553249   1.12842641
H    2.20896149   2.24885668   0.81646673
C    2.16045736   3.34434933   2.42345892
H    1.56610948   4.19824138   2.75976857
H    3.22025896   3.64366207   2.42658606
H    2.02770704   2.52830269   3.15093576
O   -1.06647684  -3.18939504  -2.13780144
H   -0.86795131  -2.31758671  -2.51057634
C   -0.79495842  -4.15744586  -3.13864565
H   -1.02389713  -5.13339731  -2.70207832
H    0.26127779  -4.16216663  -3.45028665
H   -1.42125106  -4.02919428  -4.03535430
O   -3.02477363   1.99095271  -0.42743870
H   -2.38086808   2.47272870   0.11265464
C   -4.14216632   2.84204053  -0.62647863
H   -4.85751182   2.28384229  -1.23654480
H   -3.88195372   3.76641614  -1.16554862
H   -4.63980828   3.11800027   0.31637662
O   -1.12973153   3.25166452   1.22851823
H   -0.16103438   3.24953442   1.22184289
C   -1.55222465   2.83030594   2.51556535
H   -2.64553144   2.83845947   2.50561591
H   -1.21307606   3.50556062   3.31668125
H   -1.22065277   1.80866854   2.75865884
O    0.84010005  -3.10006817   1.69762394
H    0.19427410  -2.38240523   1.77694610
C    0.15534556  -4.24358246   1.21180491
H    0.89740608  -5.04225558   1.12842243
H   -0.28697069  -4.08324502   0.21610135
H   -0.63884530  -4.58534081   1.89388954
O   -0.46226304  -0.63915419  -3.13712713
H    0.18532258   0.04504625  -2.91145943
C   -1.71824071  -0.00269819  -3.31026763
H   -2.43587469  -0.78763984  -3.56394713
H   -1.71285880   0.73279598  -4.12989967
H   -2.07038374   0.49910672  -2.39541001
O   -0.91278295  -0.83130376   1.66885218
H   -1.86749717  -0.83086926   1.50470634
C   -0.27980436  -0.27227565   0.52895769
H    0.79477198  -0.28037977   0.73071298
H   -0.58412494   0.76938765   0.34159739
H   -0.45962522  -0.85689123  -0.38682963
O    2.82926103  -1.95478269   0.04821275
H    2.26430242  -2.46801844   0.64473106
C    2.46452425  -2.28683794  -1.28191513
H    3.11047772  -1.70001285  -1.94059990
H    1.41863371  -2.03059054  -1.51262615
H    2.62008473  -3.35248475  -1.51207843
O    1.36539594   1.28733762  -2.20649796
H    1.98562958   1.21096214  -1.46629509
C    0.71956356   2.54584221  -2.09879231
H    0.02465533   2.61536138  -2.94007396
H    1.42200015   3.39136865  -2.16546473
H    0.14002660   2.64812373  -1.16795788
