72
Energy:   -416.63282892
O    1.75592015  -3.39531933  -0.65715121
H    1.96982854  -2.68160590  -1.27624702
C    2.19587034  -4.61348699  -1.23598206
H    1.94718544  -5.40666268  -0.52569103
H    3.28385294  -4.63543144  -1.40506677
H    1.69153054  -4.83807893  -2.18886041
O    1.11106575   3.05336230   0.50413938
H    1.02328496   2.18988302   0.93439669
C    2.28692014   3.02156021  -0.28888574
H    2.37050475   4.00167470  -0.76624766
H    2.24470792   2.25825182  -1.08157468
H    3.19747506   2.85343141   0.30726842
O   -1.33759660   4.15473584  -0.25919821
H   -0.43991559   3.87003038  -0.03218526
C   -1.44997991   5.52945217   0.07255284
H   -2.46693573   5.83375498  -0.18952703
H   -0.74793206   6.16210953  -0.49282385
H   -1.30249087   5.72106075   1.14694126
O    2.26477723  -1.30377875  -2.44745683
H    1.60977188  -0.64005930  -2.70988351
C    3.46769138  -0.62059939  -2.13313646
H    4.19446606  -1.38293997  -1.83967332
H    3.35093545   0.08128006  -1.29259460
H    3.88008775  -0.06849476  -2.99213997
O    0.61421317   0.48994169   1.66528022
H   -0.16839240   0.66190280   2.20968924
C    0.17753149  -0.13559142   0.46922369
H    1.07140115  -0.32217749  -0.13216459
H   -0.50311945   0.49970345  -0.11890219
H   -0.31913856  -1.10147501   0.65133653
O   -2.67837683  -2.39337055   0.47748838
H   -1.95217831  -2.96214281   0.77338886
C   -3.25730377  -1.80041960   1.62891643
H   -4.07334797  -1.16317815   1.27751865
H   -2.54661728  -1.16932407   2.18517219
H   -3.67932792  -2.54364274   2.32338912
O    3.43014960   0.15892926   1.39952731
H    2.48024676   0.26326091   1.55834413
C    3.76496457  -1.19377071   1.66530073
H    4.83814154  -1.29372577   1.48149272
H    3.23821080  -1.89994597   1.00452519
H    3.56909393  -1.48302305   2.70968816
O   -1.82546271  -1.34427902  -2.00842713
H   -2.23641217  -1.63904774  -1.18219761
C   -1.34026098  -2.49459156  -2.68214378
H   -0.88061423  -2.14449304  -3.61039003
H   -2.14127980  -3.20349951  -2.94405157
H   -0.57387876  -3.03431416  -2.10409954
O   -1.79851900   1.33410757   2.84523039
H   -2.38594533   1.54278661   2.10374091
C   -1.43084850   2.55821657   3.46078650
H   -0.76937544   2.30478847   4.29368072
H   -2.29539167   3.10684786   3.86618278
H   -0.88199414   3.22821444   2.78061072
O   -0.31252978  -3.74790222   1.20566468
H    0.42037625  -3.68537037   0.57529829
C    0.19765281  -3.43342642   2.49149223
H   -0.64082975  -3.50865504   3.18918332
H    0.60022115  -2.41009037   2.55064778
H    0.98032213  -4.13433884   2.82153443
O    0.14032258   0.48126163  -2.91262902
H   -0.60471677  -0.08218757  -2.65598795
C   -0.31731332   1.82404845  -2.91779740
H    0.53421997   2.44504150  -3.20890544
H   -0.66177193   2.15972735  -1.92711821
H   -1.12789755   1.99426018  -3.64357871
O   -3.12486601   2.12430129   0.49146189
H   -2.61609636   2.88175961   0.16614111
C   -3.63933974   1.43488950  -0.63661699
H   -4.20957223   0.58488298  -0.25215760
H   -2.84690874   1.04487558  -1.29443124
H   -4.31846604   2.05610578  -1.24131124
