72
Energy:   -416.04537810
O    3.87645036   0.28940446  -1.73469088
H    3.46072887  -0.11462384  -0.95857231
C    5.26655377   0.01357894  -1.67092134
H    5.71929454   0.47573448  -2.55235385
H    5.48783887  -1.06484975  -1.69923731
H    5.74471601   0.44305167  -0.77666669
O    0.63351861   2.55582491   2.50323573
H    0.62654253   2.96659097   1.62594111
C    1.97850273   2.52489748   2.95334126
H    1.96810570   2.05927388   3.94256913
H    2.41651062   3.53029450   3.05385618
H    2.63170953   1.92497806   2.30050521
O    1.34699544  -3.42330967   0.35432735
H    0.95286736  -3.26749899  -0.51676929
C    1.20399309  -4.80321751   0.65087157
H    1.65310771  -4.96120893   1.63515810
H    1.72729744  -5.44973264  -0.07089576
H    0.15059910  -5.12037028   0.70139429
O    0.26044515  -2.66459105  -2.10813836
H   -0.40844840  -1.97776852  -2.24698903
C    1.37718779  -2.34905396  -2.92413835
H    2.12089289  -3.13260126  -2.75549212
H    1.83491356  -1.38204303  -2.66307452
H    1.13015753  -2.33813010  -3.99728049
O    2.46198930  -0.82321871   0.44044713
H    2.15984385  -1.73797432   0.54219966
C    1.31494499  -0.00900365   0.25639022
H    1.67336846   1.01776916   0.14345034
H    0.62976747  -0.03857243   1.11803678
H    0.74642590  -0.27364807  -0.64888693
O   -4.99215573  -0.94273330   0.55047070
H   -4.18660597  -1.13029555   1.05478533
C   -6.05831868  -0.80840721   1.47663853
H   -6.95775907  -0.59743272   0.89184630
H   -5.90667139   0.02371202   2.18187467
H   -6.23604940  -1.72749591   2.05669464
O    2.12096922   2.43945953  -2.26071139
H    2.82314326   1.77596148  -2.18898115
C    1.15293060   1.94488132  -3.17220873
H    0.36944171   2.70440291  -3.24118202
H    0.68906633   1.00584585  -2.83188586
H    1.56245358   1.78420682  -4.18178883
O    0.67308399   3.56064131  -0.14897917
H    1.23597606   3.27496918  -0.88380379
C    0.34712507   4.92485495  -0.36159546
H   -0.28707996   5.23039752   0.47501253
H   -0.21602810   5.08719270  -1.29394855
H    1.23430829   5.57719128  -0.37345148
O   -1.48534810   1.82503024  -0.78593309
H   -0.81553037   2.47057704  -0.51567983
C   -2.42644802   1.71365581   0.26974700
H   -3.17359303   0.98275129  -0.05124849
H   -2.94493242   2.66240934   0.47907450
H   -1.97423196   1.35086997   1.20605058
O   -0.75480725   0.24314573   3.37803059
H   -0.29381370   1.07165981   3.17935337
C    0.17175491  -0.62342309   4.01291232
H   -0.36389169  -1.55163567   4.22968252
H    0.55050610  -0.21773095   4.96408989
H    1.03319066  -0.86809718   3.37194401
O   -1.54706079  -0.53197404  -2.30504365
H   -1.60039652   0.29716763  -1.80694460
C   -2.87167739  -0.99580636  -2.51188709
H   -2.79312942  -1.93021424  -3.07420136
H   -3.48119376  -0.29295467  -3.10118042
H   -3.39998457  -1.20804263  -1.56921820
O   -2.60592829  -1.38146308   1.98659909
H   -1.99876350  -0.83903621   2.51152507
C   -1.82799443  -2.13133562   1.06733641
H   -2.52745962  -2.73654978   0.48428455
H   -1.12033843  -2.81238486   1.56550530
H   -1.26357901  -1.49395247   0.36879845
