72
Energy:   -421.07707545
O    0.18135252  -0.06804849  -2.02663528
H    1.10562570  -0.32793364  -2.15548430
C   -0.04796945   0.02833077  -0.62997632
H   -1.09350396   0.32187761  -0.50280299
H    0.58208546   0.79174900  -0.14727482
H    0.10388676  -0.92888970  -0.10705568
O    0.43440022   1.13533826   2.78719524
H    0.00892067   0.26540922   2.81197211
C   -0.58085447   2.10545873   2.58555701
H   -0.08429360   3.07924981   2.56019111
H   -1.32179492   2.12119737   3.40013474
H   -1.11530077   1.96985035   1.63227067
O    2.89209081  -0.90101579  -1.95470205
H    2.91943535  -1.43461620  -1.14665122
C    3.76985663   0.19874495  -1.77418265
H    3.72688146   0.78918112  -2.69343422
H    4.81448087  -0.11231407  -1.61676655
H    3.47083094   0.84850053  -0.93681854
O    2.54393332   2.15429317   1.26037945
H    1.86721964   1.78347217   1.84601897
C    3.47290375   2.85924675   2.06820876
H    4.22803789   3.27037285   1.39275857
H    3.98337738   2.20877561   2.79558850
H    3.01156032   3.69664547   2.61474600
O   -2.13315923  -1.51090231  -2.78815766
H   -1.40529603  -0.90455922  -2.58570647
C   -3.28710311  -1.03949796  -2.11086508
H   -4.09720718  -1.73385748  -2.34978235
H   -3.59173543  -0.03349012  -2.43938403
H   -3.16171397  -1.02465723  -1.01686570
O   -3.50685965   1.23429033   0.52790692
H   -2.95532367   1.88465077   0.06827377
C   -4.55710273   1.93841095   1.17113114
H   -5.16856233   1.19094204   1.68386167
H   -5.20289282   2.47967021   0.46206774
H   -4.19075755   2.65423123   1.92357373
O    0.95268533   3.57874305  -0.59153201
H    1.55186304   3.13477127   0.02677083
C    1.47989261   3.41029332  -1.89775211
H    0.79290299   3.91630579  -2.58147855
H    1.54276380   2.35256465  -2.19780978
H    2.47593384   3.86488076  -2.01619813
O    0.16331144  -3.61485353   0.97462719
H   -0.19485257  -3.70963120   0.07955233
C    0.19769626  -4.90511650   1.56333163
H    0.60359184  -4.78001728   2.57084548
H    0.84970937  -5.60455060   1.01702752
H   -0.80181097  -5.35890415   1.65187200
O   -0.70037092  -1.43966375   2.56304072
H   -0.39710802  -2.23516304   2.10083323
C   -2.09343028  -1.31013939   2.32821561
H   -2.41853815  -0.40934971   2.85582155
H   -2.67156933  -2.16207439   2.71903440
H   -2.33507930  -1.18659128   1.26092046
O    2.63880322  -2.31714517   0.47224410
H    1.84791065  -2.82919514   0.69744856
C    2.88778583  -1.41756126   1.54055596
H    3.78172242  -0.84885026   1.27049972
H    3.08608071  -1.93319648   2.49322421
H    2.06350358  -0.70412776   1.69659681
O   -0.74053413  -3.70004919  -1.65527544
H   -1.32982381  -3.07424980  -2.10197005
C    0.45114458  -3.78983916  -2.41971862
H    1.10351292  -4.49863264  -1.90250247
H    0.98248000  -2.82806513  -2.49354777
H    0.27518378  -4.16872371  -3.43866986
O   -1.84201052   3.09160833  -0.78270598
H   -0.90401456   3.32778020  -0.72969932
C   -2.14725183   2.84437506  -2.14587773
H   -3.20732220   2.57978657  -2.18745818
H   -1.56945800   2.00615176  -2.56577454
H   -1.99075245   3.72832275  -2.78378192
