72
Energy:   -415.97349087
O    1.29379638  -0.65754224   3.62245023
H    1.89290319  -0.67554558   2.86141792
C    1.88382160  -1.43342920   4.65317980
H    1.19605715  -1.40243940   5.50259425
H    2.85429294  -1.03227302   4.98489718
H    2.02349555  -2.48717792   4.36528719
O    0.13899816   2.81441899   0.55337242
H   -0.70731673   2.46676135   0.23508239
C    0.49603646   2.08162722   1.71443816
H    1.45138262   2.48604763   2.05975402
H    0.63251448   1.00738504   1.51405150
H   -0.23629034   2.19279291   2.52937189
O    1.05516169  -0.47658612  -0.90434686
H    0.81320369   0.03767346  -1.68883184
C   -0.06152727  -1.27832722  -0.55398883
H    0.22819577  -1.85087730   0.33129766
H   -0.33832610  -1.99143649  -1.34622295
H   -0.95051816  -0.68078505  -0.29822352
O    2.81289121  -0.72192574   1.27301965
H    2.25940492  -0.65779631   0.48057810
C    3.88093156   0.20043603   1.12785646
H    4.49436162   0.11511850   2.02891677
H    3.53471610   1.24280672   1.04800952
H    4.51908289  -0.02133849   0.25816900
O   -1.26159646  -1.63561185   2.98088136
H   -0.43484063  -1.23330452   3.28591724
C   -2.14359684  -0.58507883   2.61895668
H   -3.06960444  -1.05582942   2.27779835
H   -1.75243203   0.03428632   1.79667070
H   -2.38819124   0.07545785   3.46550390
O   -2.32904318   1.75001395  -0.31237688
H   -2.67626196   1.03426823  -0.86516117
C   -3.40556853   2.62447543  -0.01414196
H   -2.99696614   3.42463645   0.60897250
H   -4.21135907   2.12979853   0.55045853
H   -3.84314232   3.08283197  -0.91481715
O   -3.10505315  -2.99090104  -0.82037609
H   -2.58164723  -3.37711211  -0.10252478
C   -4.33150118  -3.70060216  -0.88881102
H   -4.90864610  -3.25275439  -1.70233503
H   -4.92344268  -3.61686129   0.03605116
H   -4.19241958  -4.76898795  -1.11681418
O    2.66275231   3.05490351  -0.70182699
H    1.81423294   2.94636423  -0.24723116
C    2.92277742   4.44593607  -0.80157231
H    3.88194556   4.55014310  -1.31598710
H    3.00800322   4.93420080   0.18184593
H    2.16015464   4.97999527  -1.38975986
O   -1.61225043  -3.88998664   1.36655700
H   -1.52794425  -3.16266937   2.00084820
C   -0.44627184  -4.69107453   1.47279216
H   -0.55779824  -5.50536332   0.75169520
H   -0.32517993  -5.13520839   2.47322166
H    0.47336678  -4.13855747   1.22426241
O   -3.32546322  -0.39298742  -1.83763596
H   -3.28229352  -1.29928932  -1.49825930
C   -2.79387850  -0.40011233  -3.15289285
H   -2.85009524   0.62825164  -3.52003375
H   -3.36883881  -1.03998216  -3.84047163
H   -1.73947212  -0.71642904  -3.18368651
O    0.58074798   1.05554488  -3.25070453
H    1.50986671   1.25744833  -3.43616790
C   -0.09174978   2.28546251  -3.03256885
H   -1.13674809   2.03964273  -2.82511676
H   -0.06485964   2.94676378  -3.91275910
H    0.30638386   2.84042962  -2.16869476
O    3.32193214   1.75725296  -3.10984993
H    3.20288187   2.22335992  -2.26902022
C    4.02311435   0.55402050  -2.83946326
H    4.14863917   0.04156943  -3.79712846
H    3.47103040  -0.11705441  -2.16297297
H    5.02305763   0.73111217  -2.41340071
