72
Energy:   -418.98229700
O   -0.03248571  -3.49289760   1.66251159
H   -0.92528863  -3.15992118   1.48800391
C   -0.10509639  -4.90840833   1.72243525
H    0.90884356  -5.26692274   1.91961134
H   -0.44798264  -5.35702491   0.77694621
H   -0.75772755  -5.26675898   2.53387514
O    1.42475824   0.94329019  -2.69651163
H    1.29734061  -0.01311616  -2.61005405
C    2.70468428   1.25626213  -2.17080099
H    2.83182291   2.33711522  -2.27605108
H    3.52196738   0.76145511  -2.71851594
H    2.79918145   1.00378451  -1.10304508
O    3.46574628   1.50520619   1.43259055
H    2.85115738   1.13761598   2.08495639
C    4.60291994   1.98250202   2.13370290
H    5.28473420   2.39306210   1.38399968
H    5.13324216   1.18479856   2.67703049
H    4.35692546   2.78457905   2.84710074
O    2.24435347  -2.93557239   0.10923518
H    1.52957662  -3.15819879   0.72401548
C    3.03225710  -1.92258980   0.71389039
H    3.83249734  -1.68379531   0.00814401
H    3.49583409  -2.25080031   1.65736883
H    2.46267870  -1.00046581   0.90894199
O   -0.58257509   2.84730548  -2.49114595
H    0.13347863   2.20775924  -2.62026198
C   -0.74980654   3.55763913  -3.70769579
H   -1.55994593   4.27358076  -3.54464076
H   -1.03589510   2.90352083  -4.54618248
H    0.15056293   4.12128830  -3.99823280
O   -3.05627202   1.63319324  -1.80007062
H   -2.24497352   2.08941401  -2.06854898
C   -3.54684218   2.27719022  -0.63510599
H   -4.46064160   1.75080580  -0.34635827
H   -3.80224165   3.33419640  -0.80913577
H   -2.84137640   2.22457803   0.20888887
O    1.55324347   0.41188935   3.19270094
H    0.74386205   0.63632732   2.71004932
C    1.30792631  -0.78688468   3.91054081
H    2.22956976  -1.02520498   4.44837163
H    1.06812443  -1.63580702   3.25129635
H    0.49862846  -0.68172331   4.64996992
O   -0.58552836   1.12153639   1.51310625
H   -0.58951060   2.02388963   1.16073422
C   -0.29470620   0.24137387   0.43920208
H   -0.29414759  -0.77042965   0.85361555
H    0.69445864   0.42785932  -0.00751195
H   -1.05051483   0.28223296  -0.36071116
O   -0.38644413   3.63929600   0.21509665
H   -0.47688926   3.51958421  -0.74193628
C    0.97939793   3.90860356   0.48801179
H    1.06341877   4.04075889   1.57012115
H    1.33625073   4.83054560   0.00277340
H    1.64326837   3.08108902   0.19259166
O    1.03520440  -1.77632053  -2.15241551
H    1.53251100  -2.24903167  -1.46856349
C   -0.26041106  -2.35056487  -2.21689643
H   -0.80700265  -1.80642058  -2.99189955
H   -0.81740705  -2.25047872  -1.27216602
H   -0.24013651  -3.41536597  -2.49719073
O   -3.41011850  -1.09830008  -1.25055591
H   -3.32272394  -0.15695381  -1.46186767
C   -4.18095832  -1.70034275  -2.27811825
H   -4.26961900  -2.76017336  -2.02437910
H   -3.70340561  -1.62499878  -3.26758479
H   -5.19645881  -1.28029595  -2.34951004
O   -2.57603334  -2.49448122   1.03679291
H   -2.91134235  -2.05173465   0.24308855
C   -2.98255976  -1.72980801   2.16042316
H   -2.59659189  -2.24254794   3.04564164
H   -4.07766030  -1.66244676   2.25526306
H   -2.57110603  -0.70834101   2.15102504
