72
Energy:   -416.24590240
O    3.36270025  -1.18111027  -2.24260603
H    2.54341712  -1.56419047  -2.58966221
C    3.88281039  -2.08031103  -1.27645014
H    4.80526679  -1.63343543  -0.89584326
H    4.13095067  -3.06515369  -1.70223020
H    3.20035807  -2.23160600  -0.42548246
O   -2.30862427   1.38347572  -0.72403127
H   -2.70308475   1.18323909   0.13778628
C   -1.69018921   2.65667436  -0.62896780
H   -1.25106441   2.86652316  -1.60805824
H   -0.88306390   2.68253546   0.11980271
H   -2.40584070   3.46073935  -0.39637423
O   -1.40320435  -0.30083803  -2.76664411
H   -1.72978654   0.31571957  -2.09461429
C   -2.26845118  -0.21373265  -3.88748948
H   -1.88613908  -0.91444907  -4.63469705
H   -2.28175389   0.79137647  -4.33732949
H   -3.30430889  -0.50116229  -3.64840717
O    2.99047035  -0.16284540   2.52627849
H    2.46874170   0.58552850   2.85209898
C    4.00746966   0.35568615   1.68403671
H    4.58556324  -0.50045953   1.32583621
H    4.69439095   1.03353004   2.21454981
H    3.60409766   0.88611897   0.80727598
O   -3.60481599  -2.87095781   0.60760278
H   -2.96982753  -2.53021955   1.25499012
C   -3.28517120  -2.29937340  -0.65082968
H   -4.00996482  -2.69374842  -1.36820529
H   -2.27684832  -2.57347002  -0.99858440
H   -3.36655860  -1.20112392  -0.65204898
O   -3.22906644   0.59744054   1.80626117
H   -2.76321749  -0.19120874   2.12160280
C   -4.62095764   0.35566004   1.93554703
H   -5.13054739   1.25373318   1.57600826
H   -4.92758790   0.18387619   2.97921629
H   -4.96267021  -0.49702707   1.32814722
O    1.71998571   3.02663091   0.37590540
H    2.04355663   2.53087682  -0.39087554
C    2.56565600   4.15248055   0.54864258
H    2.18702693   4.69962205   1.41626082
H    2.55025892   4.83272906  -0.31726863
H    3.61106646   3.87192345   0.75157611
O    1.26663922   2.03244167   2.97039445
H    1.32869098   2.45889819   2.10280716
C   -0.10741782   1.80721912   3.24201155
H   -0.15911241   1.32643886   4.22265583
H   -0.58175118   1.13723543   2.50790866
H   -0.69029124   2.74044118   3.28819033
O    0.80141541  -1.41379923   1.25952855
H    1.63096586  -1.11502984   1.66078430
C    0.51207979  -0.54781930   0.17375812
H   -0.42516765  -0.89858569  -0.26671366
H    1.28712434  -0.57267243  -0.60820454
H    0.37060134   0.49762793   0.48967153
O    2.66031338   1.51713522  -1.79042229
H    3.04447081   0.64206093  -1.94882471
C    1.74499099   1.78203916  -2.84139546
H    1.32159788   2.77126941  -2.64736716
H    0.91670820   1.05714202  -2.87673789
H    2.22851012   1.80567810  -3.83055055
O    0.79013785  -2.04993513  -3.01133303
H    0.01593242  -1.46882071  -2.97479204
C    0.43835698  -3.27526167  -2.38895142
H    1.32154016  -3.91789645  -2.43888360
H   -0.38845214  -3.79086241  -2.90209846
H    0.16599730  -3.15109051  -1.32915000
O   -1.71885403  -1.69999032   2.40664969
H   -0.82459079  -1.65333146   2.03713720
C   -1.65414591  -2.47370351   3.59396369
H   -2.66963511  -2.51610737   3.99703787
H   -1.00163435  -2.02470431   4.35908179
H   -1.31606321  -3.50571367   3.41111825
