72
Energy:   -416.40062324
O   -1.34038864   4.01082844  -0.58602958
H   -0.96557590   3.70729584  -1.42615258
C   -0.26261282   4.24811474   0.30538966
H   -0.70253965   4.58926442   1.24643508
H    0.42262792   5.03134534  -0.05484956
H    0.32546771   3.34039958   0.51273432
O    0.44757861  -4.54964238   2.67397699
H   -0.20151612  -3.83054746   2.67263999
C    0.40599416  -5.16939270   1.39854998
H    1.14300661  -5.97682154   1.41743180
H    0.67480720  -4.48083287   0.58221534
H   -0.57743778  -5.61008210   1.17176416
O   -3.22922400   2.38674790   0.69635206
H   -2.62643871   3.01406801   0.27027386
C   -4.39259930   3.10147412   1.08139508
H   -5.06066476   2.38000179   1.55957017
H   -4.92411004   3.54247901   0.22361402
H   -4.17919427   3.90205044   1.80686953
O   -1.85010897  -0.02588887   1.18133259
H   -2.39055308   0.77382128   1.09882736
C   -0.54714661   0.28507833   0.71429697
H    0.04828767  -0.62648616   0.81426396
H   -0.06115603   1.07684790   1.30564412
H   -0.53564999   0.58588736  -0.34502313
O   -1.51977349   0.30751174  -2.97010693
H   -1.21418728  -0.57596283  -2.71611280
C   -2.83073122   0.47432269  -2.45426032
H   -3.15959287   1.47441922  -2.74945880
H   -2.86613788   0.41385834  -1.35522994
H   -3.54561897  -0.25539835  -2.86562395
O    2.58186613   1.82060572   1.30063171
H    2.38570716   1.93241610   0.35858958
C    3.83284358   2.43891155   1.55614511
H    4.03836851   2.30363614   2.62148321
H    3.82410189   3.51964751   1.34469604
H    4.65763786   1.98043011   0.98844229
O   -0.30805464   2.80466373  -2.92707541
H   -0.76088306   1.95326438  -3.01921026
C   -0.29461157   3.42529177  -4.20268268
H    0.21897295   4.38281787  -4.08078148
H   -1.30630251   3.62717278  -4.58804333
H    0.25321376   2.83752000  -4.95580225
O   -0.49166176  -2.15074532  -2.03642089
H    0.38098831  -2.33105153  -1.65642774
C   -1.45413684  -2.82925897  -1.24534900
H   -2.43111923  -2.61545021  -1.68724993
H   -1.46822371  -2.48058427  -0.20083723
H   -1.31108244  -3.92118972  -1.24527568
O   -1.39178180  -2.41710627   2.57608003
H   -1.58106958  -1.60232555   2.08748429
C   -1.90256236  -2.25950995   3.89015780
H   -1.68084703  -3.18608498   4.42661489
H   -2.99319630  -2.10782802   3.90711454
H   -1.42760497  -1.42807725   4.43413617
O    1.94677673   1.98922232  -1.42355979
H    1.25045119   2.36258112  -1.98405710
C    2.24208794   0.69036580  -1.91171633
H    3.02810044   0.28444635  -1.26914418
H    2.61845435   0.70043487  -2.94661935
H    1.37673851   0.01095386  -1.86326953
O    2.81916490  -0.99156362   1.39981711
H    2.74463960  -0.03344218   1.52177022
C    2.34335596  -1.61427633   2.58234343
H    2.43438858  -2.69285820   2.42787849
H    1.28539203  -1.38675811   2.78661070
H    2.93454913  -1.34569547   3.47179960
O    1.99402273  -2.53442349  -0.78394772
H    2.29097552  -2.05217897   0.00198009
C    3.01105659  -3.46081438  -1.13032298
H    2.66029466  -3.99534390  -2.01730069
H    3.19942413  -4.20162775  -0.33754901
H    3.96475313  -2.97094880  -1.38186218
