72
Energy:   -417.48033249
O    1.15757415  -0.22580501  -1.41379496
H    1.94317040  -0.57952719  -0.97091527
C    0.10469895  -0.19556571  -0.46349333
H   -0.77228360   0.20534673  -0.97891163
H    0.32502728   0.45856508   0.39461253
H   -0.15178356  -1.19591875  -0.08101738
O   -0.13898725   0.64082735   3.14004957
H   -0.26981102  -0.31357158   3.03791687
C   -1.39949964   1.26880790   2.96892760
H   -1.23390850   2.34309458   3.08713457
H   -2.13799990   0.95232199   3.72207524
H   -1.82772072   1.09740076   1.96891578
O   -0.10728560   1.57545161  -3.21392558
H    0.38415990   0.93961330  -2.67298728
C    0.79545217   2.59858381  -3.60225378
H    0.22557992   3.30605978  -4.21070146
H    1.63086073   2.21979820  -4.21167261
H    1.21270425   3.14627004  -2.74276682
O    1.70239871   2.42382132   2.02118405
H    1.07468066   1.82000893   2.44521698
C    2.33887175   3.17166903   3.04498074
H    3.04239904   3.84655719   2.54994487
H    2.90760564   2.53807839   3.74346624
H    1.63174559   3.78290181   3.62734180
O   -2.80300521  -1.74954559  -1.57184591
H   -3.05259696  -1.00149194  -1.00922438
C   -2.73957847  -1.28005574  -2.90904077
H   -2.45726161  -2.13517036  -3.52917091
H   -1.98211147  -0.49281176  -3.04784994
H   -3.70696815  -0.89941420  -3.27242286
O   -3.37345002   0.60552131  -0.11139236
H   -2.89212651   1.37419148  -0.45182903
C   -4.75144516   0.94095346  -0.07750337
H   -5.27878114   0.06427304   0.30828597
H   -5.15748285   1.17211468  -1.07473715
H   -4.96617357   1.78980365   0.59042057
O    2.60275810   3.42736211  -0.45726939
H    2.28077978   3.09498446   0.39377605
C    3.59353846   2.52589455  -0.92443563
H    3.94535738   2.91527518  -1.88364957
H    3.20015628   1.51096227  -1.09158904
H    4.45851771   2.45600552  -0.24642106
O    1.18937539  -3.58393070   0.77155525
H    0.56600086  -3.68204566   0.03657163
C    1.55764122  -4.88514516   1.20022179
H    2.25989209  -4.75611045   2.02827912
H    2.06218524  -5.46562536   0.41202422
H    0.70019856  -5.47033098   1.56781801
O   -0.45364171  -2.09159964   2.55070516
H    0.14969696  -2.64399171   2.03179407
C   -1.77789249  -2.41135077   2.15491118
H   -2.44439548  -1.78026745   2.74904315
H   -2.03830589  -3.46312424   2.35172264
H   -1.96640125  -2.19998733   1.09068974
O    3.07115553  -1.50102855   0.27955378
H    2.55461400  -2.29287429   0.49071356
C    3.19405912  -0.73748477   1.46885163
H    3.77844059   0.15052753   1.21308289
H    3.72571889  -1.27754961   2.26787929
H    2.22112586  -0.40413358   1.86262211
O   -0.71824032  -3.65783115  -1.26824073
H   -1.48248529  -3.07830317  -1.40425626
C    0.08910658  -3.58589553  -2.43252164
H    0.94520738  -4.24439256  -2.26235025
H    0.47164740  -2.57086929  -2.62268360
H   -0.43542847  -3.93446241  -3.33592711
O   -1.84589878   2.67003522  -1.24174368
H   -1.31764086   2.40936093  -2.01077928
C   -1.00988630   3.42833459  -0.38232587
H   -1.62061652   3.71376476   0.47850131
H   -0.63645458   4.34950311  -0.85642991
H   -0.14655366   2.85316653  -0.01271014
