72
Energy:   -417.82219991
O    1.13035072  -0.68674252  -1.63890070
H    1.72177622  -1.27937342  -1.15163511
C    0.21194548  -0.13510856  -0.70897298
H   -0.44656671   0.52976483  -1.27447299
H    0.70619936   0.45979769   0.07497663
H   -0.41224434  -0.90090716  -0.22243738
O   -0.30621609   0.51664258   2.81893453
H   -0.66677704  -0.37744761   2.72395126
C   -1.28434844   1.42788742   2.34414644
H   -0.86194798   2.42989271   2.45837625
H   -2.22141756   1.38463557   2.92104164
H   -1.52427100   1.27784636   1.27986162
O    0.78380611   0.99613979  -3.87077389
H    0.89168509   0.43042126  -3.09183362
C    1.35467400   0.31745459  -4.97803629
H    1.22450492   0.96854464  -5.84672666
H    0.85654618  -0.64108690  -5.19214893
H    2.43218837   0.12844845  -4.85147875
O    2.17715894   1.63138212   2.14864365
H    1.34251795   1.22272608   2.42213577
C    2.58301063   2.51443365   3.18210297
H    3.52444730   2.96606162   2.85773530
H    2.76392092   1.99675813   4.13712174
H    1.85836193   3.32482553   3.35796256
O   -2.89345464  -1.55643841  -1.96531493
H   -3.04023325  -0.66576537  -1.61377425
C   -2.25465534  -1.42218016  -3.22485610
H   -2.09682131  -2.43454294  -3.60655654
H   -1.27338182  -0.92743380  -3.15340230
H   -2.86809794  -0.87329123  -3.95642048
O   -3.16032490   1.02723862  -0.88492650
H   -2.57170743   1.79660922  -0.88957556
C   -4.42665431   1.45697100  -0.41135107
H   -5.07724360   0.57821199  -0.41252408
H   -4.88505612   2.22196751  -1.05743578
H   -4.38530374   1.84974113   0.61665627
O    1.36958777   3.18584202  -0.07101959
H    1.75387476   2.69742890   0.67208162
C    2.19628249   2.96765249  -1.20305446
H    1.74902487   3.52476417  -2.03074547
H    2.24767244   1.90674797  -1.49394617
H    3.22307557   3.33818817  -1.05753262
O    1.57877408  -2.75528881   2.51972541
H    0.62678818  -2.57873785   2.55096436
C    2.19245468  -1.98917383   3.54393132
H    3.26419830  -2.19991467   3.49454387
H    1.83692316  -2.26184855   4.54992494
H    2.05094389  -0.90563158   3.40722648
O   -1.18682723  -2.13394895   2.42509589
H   -1.45324093  -2.53983192   1.58682026
C   -1.99074274  -2.69583605   3.45005273
H   -1.67753129  -2.22768153   4.38718406
H   -1.85371884  -3.78399954   3.54956153
H   -3.06374009  -2.49221719   3.30865480
O    2.79458369  -2.24825131   0.02492046
H    2.45120067  -2.52358298   0.88788272
C    3.81260306  -1.28704396   0.25350469
H    4.18833635  -0.98774650  -0.72870238
H    4.65699200  -1.69160349   0.83326002
H    3.43961354  -0.38612675   0.76536828
O   -1.79085491  -3.27565441  -0.03292278
H   -2.21484941  -2.79542670  -0.75958176
C   -0.64688493  -3.92944878  -0.55867880
H   -0.18140672  -4.46540147   0.27292805
H    0.09423329  -3.22562922  -0.96875092
H   -0.89826316  -4.66368491  -1.34001331
O   -1.33852135   3.17038303  -0.87790122
H   -0.41522010   3.24312187  -0.59391683
C   -1.39854147   3.54101889  -2.24595108
H   -2.44527828   3.45344508  -2.54952654
H   -0.79929297   2.88061218  -2.89212562
H   -1.07861894   4.58042182  -2.41935368
