12
Energy:   -100.60033205
O    0.26766676   0.94064815   1.73866439
H   -0.54714803   0.52188200   1.46127725
H    0.04321120   1.38405134   2.55673845
O   -1.98467123  -0.94024925   0.25339962
H   -1.49461478  -0.67539602  -0.52501498
H   -2.74492111  -1.40974467  -0.08985830
O    1.97289414   0.07357728  -0.21165876
H    1.41037678   0.36895789   0.50427165
H    2.81636639  -0.10531422   0.20401448
O   -0.24870577  -0.14772717  -1.79152766
H   -0.11943668   0.14854095  -2.69249744
H    0.62505950  -0.11895371  -1.40173517
