12
Energy:   -100.52964555
O    0.47629056   0.47132689   1.40771444
H    0.01966576  -0.33324408   1.16196826
H    0.71510060   0.34099922   2.32543788
O   -1.20223129   1.16072941  -0.71605864
H   -1.84946716   1.85381450  -0.58586400
H   -0.64462319   1.20408982   0.06074567
O    1.60811240  -0.52284640  -1.00366967
H    1.19105430   0.04676735  -1.65007091
H    1.54921195  -0.03624150  -0.18149070
O   -0.75401006  -1.53388343   0.07635523
H    0.06950124  -1.58122825  -0.40925722
H   -1.24858924  -0.83838571  -0.35712626
