12
Energy:    -97.75991748
O   -1.60918602  -0.18792041  -1.14263894
H   -2.40237041   0.17929039  -1.53282685
H   -1.28863867   0.49942537  -0.55865518
O   -0.43308022   1.31173941   0.93899493
H   -0.39793211   0.47726260   1.40658975
H    0.41857791   1.38117017   0.50761384
O    1.87610035   0.76011538  -0.41609248
H    1.51775451  -0.09322758  -0.17190834
H    2.67612193   0.84190819   0.10304840
O    0.10864782  -1.55515283   0.53508101
H   -0.55199112  -1.28347109  -0.10208229
H    0.11740442  -2.51067450   0.47910323
