12
Energy:    -97.97426239
O    1.18535290  -0.48521273   1.29397986
H    0.36951102  -0.97891696   1.21097372
H    1.87437655  -1.14403767   1.20779431
O   -1.39325589   0.68390796  -0.99215767
H   -1.93597602   1.07968008  -1.67410425
H   -0.53349980   1.08950781  -1.10414015
O    1.64848487   1.27996192  -0.91012325
H    1.50844776   0.52737087  -0.33546843
H    1.75195995   2.02139912  -0.31363717
O   -1.20556048  -1.53091097   0.63831512
H   -2.09466947  -1.70130533   0.94925376
H   -1.30350750  -0.81291030   0.01292463
