12
Energy:    -97.27124668
O   -0.96941011   0.42127971  -1.19536671
H   -1.43859793  -0.00711853  -0.47942706
H   -0.38896173   1.04670302  -0.76159579
O    1.27171113  -1.10556970  -0.95594078
H    1.40908387  -1.81694287  -1.58148757
H    0.42882811  -0.72641898  -1.20498856
O   -1.66120834  -0.51386900   1.28553537
H   -0.72569907  -0.39195264   1.44737068
H   -2.08957388   0.10775767   1.87402079
O    1.08048281   1.09643773   0.68845482
H    1.86660270   1.63928660   0.74814131
H    1.36877930   0.30595304   0.23210963
