12
Energy:    -97.03288756
O    0.80825876  -1.21181579  -0.75738123
H    0.26306413  -0.53135646  -1.15231129
H    1.09130911  -1.75116977  -1.49576570
O   -0.79745370   0.87452341  -1.40077055
H   -0.40186457   1.33306453  -0.65950061
H   -1.61676078   0.52077510  -1.05460601
O    0.79342042   1.12022742   0.92282020
H    1.19913956   0.34657679   0.53155489
H    1.46676675   1.47745254   1.50180792
O   -1.20993720  -0.77821040   1.33811737
H   -0.74165834  -1.38509065   0.76484333
H   -0.63274066  -0.01755666   1.40506433
