12
Energy:   -100.15249761
O   -1.50586173   0.77349831  -1.59479096
H   -1.46558161   0.91465998  -0.64891425
H   -1.28626719   1.62450154  -1.97400538
O    0.47356646  -1.18089253  -1.11829963
H    0.20453205  -1.96370484  -1.59898375
H   -0.16637553  -0.51425055  -1.36788843
O    1.49247510  -0.88940820   1.52288612
H    1.13878955  -1.12148495   0.66423674
H    2.06523268  -1.62122420   1.75228960
O   -0.53450733   1.37664749   1.15321274
H    0.13006421   0.69506423   1.25331653
H   -0.50547929   1.86299343   1.97714044
