12
Energy:    -99.20766738
O   -0.96788683  -1.81911736   0.40432299
H   -1.27026765  -2.54727430  -0.13843402
H   -1.00703228  -1.05684234  -0.17328956
O    0.38126388   1.93737160  -0.06834149
H    1.15656516   2.45740198  -0.27978456
H    0.71045050   1.23067727   0.48704229
O    1.50812605  -0.24266103   1.10718468
H    0.96979243  -0.99047071   0.84793685
H    1.96314963  -0.53662164   1.89634408
O   -1.28106755   0.22151837  -1.22018808
H   -1.22734413   0.38921487  -2.16105127
H   -0.73940495   0.90377443  -0.82350163
