72
Energy:   -416.38701113
O    1.98578726   0.73891913  -2.38282480
H    2.35309919   1.23023393  -1.63308152
C    0.95066294   1.52710512  -2.94834603
H    0.54801339   0.95894079  -3.79128603
H    1.31309203   2.49424072  -3.33053868
H    0.12795616   1.71893174  -2.24185227
O    1.82039986  -2.21911859   2.66312760
H    0.87743524  -2.36009149   2.83449749
C    2.48977106  -3.44659707   2.90348684
H    3.55052114  -3.26994074   2.70578246
H    2.14835980  -4.25461830   2.23766601
H    2.38908580  -3.78895896   3.94532567
O   -1.82833086   3.51570022  -3.05621229
H   -2.14913727   2.72487806  -2.59783817
C   -2.95266377   4.33041748  -3.34715054
H   -2.57337726   5.21657173  -3.86324897
H   -3.48223725   4.66366805  -2.44090922
H   -3.67780538   3.83332310  -4.01035801
O    2.93357905   1.97759328  -0.02302555
H    3.03234837   1.38114595   0.73388823
C    4.21136617   2.52218213  -0.31149886
H    4.08190800   3.19148146  -1.16634632
H    4.94877114   1.75274902  -0.58895862
H    4.62117887   3.11096672   0.52406299
O    1.12435776  -1.90520316  -1.91509594
H    1.45175571  -1.04133911  -2.20659682
C    2.03731004  -2.40935931  -0.95338991
H    1.65342289  -3.38261329  -0.63575406
H    2.11538986  -1.76604330  -0.06298248
H    3.04820998  -2.55858418  -1.36398775
O   -1.25236362   1.04399647   0.85399220
H   -0.73012836   1.84299369   1.01921040
C   -0.34600237  -0.02845126   0.65175735
H   -0.95085721  -0.92037172   0.46705842
H    0.28730899  -0.22166810   1.53173537
H    0.30859324   0.12667786  -0.22014682
O    0.56404188   3.22153797   0.93108961
H    1.41077332   2.92709122   0.56397892
C    0.01371665   4.17312271   0.03433859
H   -0.93947053   4.49423867   0.46306223
H   -0.18544131   3.75165565  -0.96339832
H    0.65129103   5.06304359  -0.08531531
O   -2.83535659  -2.93841304   1.05981335
H   -2.39102253  -3.00284434   0.20142001
C   -3.79790326  -1.90021249   0.96938506
H   -4.28892827  -1.84124546   1.94452737
H   -4.56983836  -2.10097072   0.21005004
H   -3.34620029  -0.91905702   0.75473254
O   -0.92809862  -2.51146794   3.09524479
H   -1.62797473  -2.73634780   2.46435197
C   -1.40706956  -1.45391064   3.91053195
H   -0.60648685  -1.21316631   4.61522669
H   -2.29965033  -1.73522355   4.49099723
H   -1.63959815  -0.54464039   3.33439359
O    2.97850827   0.29716890   2.20235684
H    2.66416719  -0.60209438   2.37825030
C    2.45404098   1.14206300   3.21409880
H    2.81782494   2.15084091   3.00075975
H    2.79696636   0.86161027   4.22232784
H    1.35312675   1.16960552   3.21666626
O   -1.38258999  -3.02142684  -1.34309556
H   -0.51067179  -2.66212931  -1.56465190
C   -1.56800808  -4.20269340  -2.10648487
H   -2.55473971  -4.59426028  -1.84471919
H   -0.82098620  -4.97872631  -1.87733739
H   -1.55216041  -4.01470546  -3.19146723
O   -2.61678794   1.23407326  -1.61260291
H   -2.24160511   1.09121190  -0.73098409
C   -2.52544142   0.00944696  -2.32287047
H   -2.95235795   0.18820706  -3.31346237
H   -3.09702704  -0.80225513  -1.84620820
H   -1.48582298  -0.32888481  -2.45516726
