72
Energy:   -418.98550100
O    2.23285523  -2.19063812   2.05591379
H    2.37747619  -1.27078445   2.32307905
C    3.15142073  -2.48632318   1.01603806
H    2.97483124  -3.52593989   0.72707707
H    4.20090747  -2.39474492   1.33692484
H    3.00383462  -1.85482746   0.12597692
O    0.34377851   2.44020852   2.35280774
H    0.24919080   2.88403899   1.49695089
C    0.42542869   3.44427924   3.35166159
H    0.53163382   2.92705014   4.30909552
H   -0.47931989   4.07024918   3.40033379
H    1.29767925   4.10380460   3.22134432
O   -0.96718868  -3.43519037  -1.34129715
H   -0.67977971  -3.55645162  -0.42417389
C   -2.19711222  -2.72862440  -1.31708198
H   -2.50645372  -2.60066436  -2.35795626
H   -2.10471126  -1.72954575  -0.86312026
H   -2.99268313  -3.27776493  -0.78955099
O    2.44950013   0.57333675   2.66706067
H    1.71956165   1.20846623   2.61990540
C    3.51645758   1.08496550   1.88451891
H    4.33010053   0.35739802   1.94867437
H    3.89200845   2.05082622   2.25714733
H    3.24692662   1.20299306   0.82329326
O   -1.81860615  -1.41246834   2.06555562
H   -1.33163745  -2.22137359   1.84885984
C   -1.06180024  -0.70005237   3.03108246
H   -1.62460635   0.20801132   3.26379433
H   -0.07000260  -0.40068314   2.65759507
H   -0.92482309  -1.26578339   3.96594235
O   -2.73195205   0.71548059  -2.38504397
H   -2.87011447   0.65209216  -1.42832232
C   -3.98412754   0.49983340  -3.01598502
H   -3.81032366   0.57468832  -4.09286670
H   -4.73592966   1.25509092  -2.73821356
H   -4.39993297  -0.49802665  -2.80584581
O    2.57560881   2.53407399  -1.41931957
H    2.30807106   1.60302791  -1.41920124
C    3.14002814   2.81956803  -2.68914544
H    3.43588506   3.87202211  -2.67199105
H    2.42389440   2.67967056  -3.51398391
H    4.03661161   2.21633128  -2.90132656
O    0.28557466   3.61527308  -0.19528595
H    1.12354257   3.38041112  -0.62081260
C   -0.73230673   3.54468800  -1.18091722
H   -1.66918526   3.81211738  -0.68470623
H   -0.84603687   2.53395999  -1.60313953
H   -0.57123120   4.25148372  -2.00993580
O   -0.09459425  -3.55111629   1.35396358
H    0.75121414  -3.15507668   1.61122623
C   -0.15500490  -4.84734228   1.92727196
H   -1.11381497  -5.27903062   1.62758276
H   -0.11852214  -4.82770832   3.02775406
H    0.64610375  -5.51038703   1.56481655
O    1.60818446  -0.08717130  -1.39744401
H    1.40762831  -0.77588693  -2.04849799
C    0.54268746  -0.05639611  -0.46133354
H    0.78474005   0.72458402   0.26459055
H    0.42847607  -1.00612683   0.08432628
H   -0.42366444   0.19626891  -0.92512414
O    0.73328934  -2.10750704  -3.17027021
H    0.14367579  -2.66557864  -2.64174848
C   -0.07032771  -1.37166064  -4.07871035
H    0.60957397  -0.74850541  -4.66598921
H   -0.78817674  -0.70873263  -3.57077672
H   -0.62712253  -2.01878392  -4.77440303
O   -3.08000435   0.45730286   0.38743966
H   -2.70252094  -0.17536313   1.01645737
C   -3.14086028   1.72003231   1.03113576
H   -3.56831476   2.42064694   0.30870444
H   -2.14827768   2.09583284   1.32495726
H   -3.78731056   1.71215252   1.92266101
