72
Energy:   -416.61034836
O    1.43311403   2.84079207  -0.94245621
H    1.93740555   2.05649832  -0.67978410
C    1.47055993   3.75858729   0.13864671
H    0.89789384   4.63593117  -0.17409353
H    2.49301276   4.08732983   0.38215417
H    1.00750211   3.35703676   1.05358494
O    1.22040465  -3.04893048  -2.23679070
H    0.69719599  -2.37387526  -2.69393010
C    0.31815379  -3.89755735  -1.54519140
H    0.92405707  -4.65190370  -1.03594883
H   -0.37846470  -4.41830714  -2.22070577
H   -0.27079821  -3.36205542  -0.78417197
O   -2.15946828  -0.08464243   0.09405980
H   -2.47547048   0.80728006   0.30152099
C   -0.75307325  -0.01385125  -0.07791523
H   -0.41369325  -1.02676752  -0.31095395
H   -0.22977472   0.32076173   0.83146375
H   -0.45905037   0.64464388  -0.91020848
O   -0.72598605   2.39413859   2.84056069
H    0.05188403   1.82175416   2.91617455
C   -1.51317190   2.20674867   4.00578909
H   -2.38500590   2.85871272   3.90413499
H   -0.98155336   2.48893360   4.92803131
H   -1.87204188   1.17129669   4.11454973
O   -2.68006095  -2.82236037   0.21133327
H   -2.56247511  -1.86503045   0.12124298
C   -3.93222198  -3.15831187  -0.36465554
H   -4.04858374  -4.23989994  -0.25459933
H   -3.98518707  -2.91670663  -1.43778132
H   -4.77866964  -2.67043276   0.14355474
O    1.49881906   0.68442032   2.98711663
H    1.72819796  -0.13852176   2.53041659
C    2.68286088   1.45730935   3.10210049
H    2.40649275   2.38047552   3.61869518
H    3.11045236   1.72828173   2.12408371
H    3.46287958   0.95464788   3.69512631
O   -2.71705992   2.59083748   0.84598605
H   -2.03989381   2.64828950   1.53632553
C   -2.28842927   3.38998058  -0.24496758
H   -3.06256041   3.31391668  -1.01335580
H   -1.33930836   3.04075468  -0.68084384
H   -2.17737097   4.45216044   0.02376526
O    1.97858177  -1.66745722   1.47256598
H    1.14744738  -2.14220474   1.62174267
C    2.95192342  -2.61886643   1.07261557
H    3.88165523  -2.06727662   0.90880882
H    2.68733312  -3.12862723   0.13298094
H    3.13995579  -3.38400935   1.84201629
O    2.74142120   0.43183527  -0.31772081
H    2.49147952  -0.31813974   0.24218088
C    2.91144913  -0.05540230  -1.63916844
H    3.19271165   0.80213389  -2.25642711
H    1.98780589  -0.48725659  -2.05529627
H    3.71187038  -0.80794399  -1.71522220
O   -0.30109439  -0.95788033  -3.42643702
H   -0.19494266   0.00485345  -3.40915224
C   -1.69179489  -1.23727193  -3.44708205
H   -1.79329758  -2.32576114  -3.46641184
H   -2.19381044  -0.83169783  -4.33942020
H   -2.21433571  -0.86149920  -2.55348075
O    0.13384107   1.83059506  -3.22930212
H    0.52608449   2.29149100  -2.47290057
C    0.78391567   2.29596024  -4.40121170
H    0.33003557   1.76670356  -5.24345004
H    1.86354151   2.07874882  -4.40335088
H    0.64655978   3.37656872  -4.56306346
O   -0.50067972  -2.85325392   2.02505459
H   -1.26135561  -3.01629697   1.44780904
C   -0.94423866  -2.04574316   3.10381110
H   -0.07515620  -1.87175292   3.74405190
H   -1.72217768  -2.53578532   3.70998508
H   -1.32624178  -1.06712845   2.77341107
