72
Energy:   -419.45396727
O    2.34933350   0.84842870   2.69447028
H    1.45100006   0.51514233   2.55185010
C    3.14608894  -0.23809096   3.13853060
H    4.15446728   0.15484016   3.29429794
H    3.20709991  -1.05112955   2.39824467
H    2.79382508  -0.66196984   4.09195296
O    3.32742482  -1.39810120  -0.57614440
H    3.45048448  -0.45738501  -0.38035718
C    4.45915944  -1.83651769  -1.31065207
H    4.30413057  -2.89786120  -1.52278694
H    5.39859443  -1.73511278  -0.74500529
H    4.57312358  -1.30954912  -2.27090913
O   -0.20375548  -0.15547795   2.03470657
H   -1.15494472  -0.12163030   2.21503030
C   -0.03414220  -0.20975090   0.62729065
H    1.04274350  -0.24741465   0.44186188
H   -0.43777717   0.67806290   0.11578034
H   -0.48941081  -1.10639937   0.17837043
O   -2.92228705   2.06519034   0.56163492
H   -3.04326086   1.33748255   1.18951228
C   -3.23093218   1.57285041  -0.73253406
H   -3.08947619   2.40519225  -1.42728759
H   -4.27360282   1.22920612  -0.81927436
H   -2.56720638   0.75128119  -1.04441453
O   -3.23670133  -2.26074179   0.37555388
H   -2.92353453  -2.13687747  -0.53274533
C   -2.52484265  -3.35503111   0.93082127
H   -2.88984564  -3.48066569   1.95379438
H   -1.43891548  -3.17735931   0.97523104
H   -2.70095846  -4.29658852   0.38747038
O   -0.16619713   3.09362570  -2.29805341
H   -0.25573616   3.38168950  -1.37749636
C   -0.73430753   4.09978908  -3.12110846
H   -0.62498403   3.75926037  -4.15434307
H   -0.21979773   5.06869094  -3.02474360
H   -1.80671999   4.25475151  -2.92439674
O   -0.61394203   3.64703753   0.40919145
H   -1.45590127   3.18037627   0.51761278
C    0.04082888   3.65157656   1.66767793
H    0.98717961   4.18097669   1.52753161
H    0.26767939   2.63762290   2.03266308
H   -0.53412671   4.17988672   2.44426776
O   -0.30162911   0.33673543  -2.80495439
H   -0.27280866   1.30115580  -2.71843264
C    1.03261191  -0.12228540  -2.95204130
H    0.98174731  -1.21024253  -3.04820409
H    1.66226538   0.11428584  -2.08006201
H    1.52293558   0.27754471  -3.85342685
O    1.38048102  -3.38867920  -0.08084106
H    2.03415345  -2.70928746  -0.30346743
C    1.44227502  -3.60276609   1.32018788
H    0.69979368  -4.37067180   1.55369910
H    1.19352477  -2.69995563   1.89969967
H    2.42695078  -3.96800984   1.65153055
O   -3.06135317  -0.21071095   2.24036565
H   -3.21184444  -0.96885048   1.65641351
C   -4.15055688  -0.14266212   3.14675321
H   -3.96498386   0.71657712   3.79694995
H   -4.23268082  -1.03923080   3.78094371
H   -5.11585985   0.01448514   2.64051983
O    3.48285085   1.30508693   0.14908912
H    3.19026616   1.29514489   1.07251678
C    2.80886267   2.36858658  -0.50454854
H    3.14999810   2.36538705  -1.54334668
H    3.04561300   3.35262977  -0.07051443
H    1.71481495   2.24274252  -0.50412248
O   -2.04936441  -1.76830769  -2.13682365
H   -1.46681160  -1.04713031  -2.41781951
C   -1.44009259  -2.98951977  -2.52407379
H   -2.10933732  -3.79112242  -2.19999067
H   -0.46130110  -3.14721583  -2.04461939
H   -1.31037777  -3.07301980  -3.61447700
