72
Energy:   -416.61086347
O    1.32249292  -0.24770876  -1.15800558
H    2.06275454  -0.65427988  -0.68352068
C    0.32054967   0.06671748  -0.20418189
H   -0.50569082   0.52372177  -0.75550660
H    0.66576284   0.78780281   0.55320911
H   -0.06675733  -0.82389593   0.31502750
O    0.48376596   0.93075594   3.38138488
H    0.29737207  -0.01967694   3.36246567
C   -0.73897727   1.61375419   3.15567235
H   -0.51085192   2.68279203   3.18021068
H   -1.49118282   1.40727226   3.93305859
H   -1.18091670   1.38143827   2.17409394
O    0.16673666   0.71050836  -3.50982994
H    0.61387122   0.40456395  -2.70677827
C    1.16083526   0.93721563  -4.49618969
H    0.63999320   1.28124572  -5.39388232
H    1.71959049   0.02407354  -4.75453334
H    1.88289522   1.71470354  -4.20136893
O    2.42636165   2.52081514   2.14736517
H    1.79468307   1.96301397   2.62513425
C    3.07009187   3.35382012   3.09828466
H    3.77801387   3.97534573   2.54327335
H    3.63501680   2.78207079   3.85110593
H    2.36854896   4.02101303   3.62313560
O   -2.39542548  -0.26730446  -2.91525934
H   -1.54151253   0.08584451  -3.20602000
C   -3.30849683  -0.12658978  -3.99184368
H   -4.26489318  -0.52917940  -3.64729641
H   -3.00225063  -0.69207097  -4.88583565
H   -3.46507264   0.92414102  -4.28206107
O   -3.04439876  -1.30807957  -0.39405541
H   -2.87864941  -0.93005117  -1.27043715
C   -3.55259596  -0.27286886   0.43214564
H   -3.73373184  -0.71586458   1.41521725
H   -4.50505274   0.13772427   0.06198798
H   -2.84140635   0.55846578   0.55811942
O    0.94326642   3.68205358   0.05621057
H    1.52840085   3.34889061   0.75266115
C    1.59798701   3.48505750  -1.18679677
H    0.92519445   3.86573778  -1.96004828
H    1.79611706   2.42283600  -1.39941687
H    2.54819117   4.03701870  -1.25910333
O    1.18395148  -3.56071912   1.09447344
H    0.42606798  -3.56095240   0.49111963
C    1.59574791  -4.90703514   1.26880262
H    2.45001655  -4.88844041   1.95097893
H    1.92062303  -5.37761654   0.32764024
H    0.81247931  -5.53631615   1.71966073
O    0.03903847  -1.82274849   3.02505552
H    0.51629048  -2.44935483   2.46112443
C   -1.32999478  -2.19456123   3.01896996
H   -1.85283337  -1.47856748   3.65887462
H   -1.49844057  -3.20350061   3.42694627
H   -1.77926484  -2.14637638   2.01467321
O    3.18266771  -1.65847952   0.44996088
H    2.61694466  -2.39400907   0.72812806
C    3.42752030  -0.84912887   1.58905373
H    4.06604155  -0.02563514   1.25794365
H    3.95591340  -1.39023703   2.38954110
H    2.50588406  -0.41826678   2.01062440
O   -1.09553042  -3.36450088  -0.50858415
H   -1.83826967  -2.75049246  -0.40981495
C   -0.63827898  -3.27492350  -1.84852101
H    0.19818851  -3.97278133  -1.94233883
H   -0.27378152  -2.26840794  -2.10706573
H   -1.40816347  -3.56441366  -2.58081237
O   -1.77771438   2.91896289   0.00313724
H   -0.87201009   3.26131360   0.03345227
C   -2.20764460   2.95808713  -1.34821877
H   -3.22938004   2.56913210  -1.36421476
H   -1.59199176   2.32765417  -2.00875129
H   -2.22470693   3.97947135  -1.75963155
