72
Energy:   -422.63057626
O    1.55968682  -0.40343021  -1.10870544
H    2.12464262  -0.88219343  -0.48417841
C    0.38834433  -0.00748668  -0.41320614
H   -0.23669228   0.53031506  -1.13124773
H    0.60197592   0.67014319   0.42819545
H   -0.18956907  -0.86376664  -0.03165921
O   -0.04500658   1.15071124   3.16104126
H   -0.34989769   0.23357587   3.09525834
C   -1.08337506   1.98549249   2.67373751
H   -0.72331605   3.01468531   2.75500775
H   -2.00956752   1.90028468   3.26338527
H   -1.32499622   1.79078926   1.61709793
O    0.96651516   0.67238283  -3.64860818
H    1.16262526   0.30004701  -2.77606584
C    2.13651444   0.55030992  -4.44153545
H    1.89808343   0.97441464  -5.42070400
H    2.44312302  -0.49712512  -4.58866921
H    2.99116028   1.10760147  -4.02706718
O    2.22043330   2.47577833   2.19170709
H    1.46950053   2.01184215   2.59081417
C    3.01510030   2.99514231   3.24588886
H    3.85627006   3.51444130   2.77871952
H    3.42086347   2.20773665   3.90020217
H    2.47094591   3.72025075   3.87110168
O   -2.57949553  -1.58469392  -1.67689428
H   -2.83541484  -0.80834838  -1.15707106
C   -2.27687683  -1.14249582  -2.99044540
H   -1.99063748  -2.02933813  -3.56233958
H   -1.43514357  -0.43287422  -3.01689589
H   -3.13980544  -0.67685523  -3.49175408
O   -3.12062814   0.75034319  -0.20833145
H   -2.61136687   1.54411849  -0.42968410
C   -4.38227117   1.17195763   0.28465122
H   -4.94288875   0.26562020   0.52908034
H   -4.96104788   1.74107962  -0.45959001
H   -4.29993263   1.77956312   1.19942620
O    1.10224385   3.52053840  -0.17563630
H    1.56089459   3.23639457   0.62892883
C    1.97161164   3.28676842  -1.27203268
H    1.43940183   3.61233352  -2.16994431
H    2.22634850   2.22225820  -1.39329455
H    2.90789088   3.86238537  -1.20258022
O    0.64337148  -3.63630000   1.49857044
H    0.16056066  -3.71008918   0.66198682
C    0.68319808  -4.92618166   2.08776727
H    1.23044065  -4.82490065   3.02891175
H    1.21198470  -5.66293435   1.46298129
H   -0.31934531  -5.32033030   2.31652684
O   -0.79861056  -1.52269552   2.72550239
H   -0.27853412  -2.27660011   2.40995262
C   -2.10915469  -1.65299964   2.19821815
H   -2.68137710  -0.79586470   2.56341181
H   -2.61476434  -2.57059669   2.53755849
H   -2.12858271  -1.63239003   1.09732073
O    2.83197910  -1.92039982   0.93249611
H    2.18917981  -2.58870699   1.21284923
C    2.98652001  -0.99775105   1.99897167
H    3.71371957  -0.25206866   1.66637016
H    3.37516274  -1.46848641   2.91556448
H    2.05004734  -0.47423351   2.24741819
O   -0.78371628  -3.61635576  -0.89135697
H   -1.45462633  -2.98912174  -1.19938370
C    0.21054541  -3.71232386  -1.89871370
H    0.95820596  -4.42266093  -1.53551932
H    0.71594061  -2.75279130  -2.09015636
H   -0.18630644  -4.09250862  -2.85304356
O   -1.55790800   2.96140944  -0.91091798
H   -0.66013502   3.23013223  -0.66553050
C   -1.65685213   3.03105386  -2.32438658
H   -2.67409527   2.72521965  -2.58355261
H   -0.95582148   2.35142799  -2.83374111
H   -1.49727285   4.04935089  -2.71217896
