72
Energy:   -416.17592740
O   -2.44279673  -0.68519060  -2.11509939
H   -2.49257410  -0.24592682  -1.25312907
C   -2.85591962  -2.03061365  -1.93705427
H   -2.79381884  -2.51067320  -2.91744782
H   -3.89507301  -2.11290929  -1.58185715
H   -2.20638630  -2.58658525  -1.24295097
O    2.39951772  -0.22226954   0.16431473
H    2.20127194  -0.04909378   1.09658725
C    2.00349780  -1.55458230  -0.11966536
H    2.23381420  -1.73292369  -1.17353153
H    0.92419423  -1.71765884   0.02623588
H    2.55146324  -2.29809052   0.48009020
O    1.79280624   0.64425926   2.77429188
H    1.20986056   1.39391790   2.96562806
C    3.00508030   0.85016865   3.48177099
H    3.64997049  -0.00317832   3.25505356
H    2.85963154   0.88780757   4.57273630
H    3.52937759   1.76681619   3.16928584
O   -0.01673528  -1.24608276  -3.45529260
H   -0.87969888  -0.98047093  -3.10434040
C    0.82311683  -0.10282282  -3.44350577
H    1.79077871  -0.41974466  -3.84184763
H    0.98516398   0.29535034  -2.42961417
H    0.44210598   0.71129977  -4.07975453
O    0.08266380   2.84537493   3.15807494
H   -0.26782545   3.44781908   2.48528849
C   -1.01946658   2.31321620   3.87546568
H   -0.60680497   1.63694380   4.62902472
H   -1.70390107   1.73451465   3.23559751
H   -1.60273910   3.08900710   4.39577231
O   -1.38413177  -2.19513982   1.69073014
H   -1.02919421  -2.96597463   1.22355106
C   -0.57235762  -1.97251481   2.83265597
H   -0.98611298  -1.10097638   3.34715813
H    0.47469144  -1.75063816   2.57335627
H   -0.58418661  -2.82087372   3.53474185
O    0.64397849  -3.76773403  -2.44324683
H    0.44016363  -2.92150005  -2.86841836
C    1.72995047  -4.35147905  -3.14498780
H    1.94640813  -5.30364681  -2.65304487
H    2.64089547  -3.73370156  -3.10882832
H    1.49225998  -4.55865772  -4.20014540
O   -2.20037321   0.25286436   0.57731909
H   -1.98840541  -0.57581679   1.03205031
C   -0.97642939   0.90397741   0.27640863
H   -1.23358659   1.83531296  -0.23542090
H   -0.33359013   0.31227518  -0.39398192
H   -0.39732577   1.15851064   1.17786809
O   -0.25876241   3.86487823  -1.69020018
H    0.55681469   3.35651029  -1.56846560
C   -0.94540022   3.31677624  -2.80404331
H   -1.86138459   3.90101989  -2.92699531
H   -1.22991678   2.26380748  -2.65210766
H   -0.36647106   3.38899165  -3.73806862
O   -0.31080538  -4.26924639   0.13761575
H    0.06287525  -4.16601783  -0.75015107
C   -1.07645420  -5.46350051   0.14614565
H   -1.48999840  -5.56436125   1.15326704
H   -0.47066838  -6.35852354  -0.06536000
H   -1.91574240  -5.43564948  -0.56631274
O   -0.97546108   4.36540277   1.00855970
H   -0.73879048   4.30510187   0.07113018
C   -2.39140759   4.37708892   1.09512005
H   -2.64064993   4.44534568   2.15752509
H   -2.84947515   3.45887987   0.69531562
H   -2.84165150   5.24160996   0.58261529
O    1.99874497   2.33652748  -0.95273074
H    2.21108655   1.43245950  -0.67705810
C    2.45127353   3.21451795   0.06554447
H    2.20419503   4.22829655  -0.26109044
H    3.54039716   3.16144968   0.21972235
H    1.95442323   3.03666953   1.03212972
