72
Energy:   -417.36951451
O    3.22894656  -0.77193794   1.02610442
H    3.10087140   0.18115556   0.90934484
C    4.62559134  -1.02059266   1.03548370
H    4.75188687  -2.09856275   1.16782843
H    5.14250741  -0.51201539   1.86429264
H    5.11509730  -0.73282743   0.09189882
O   -2.97231941  -2.41332061  -0.83386640
H   -3.19573450  -1.59613783  -1.30367623
C   -1.98248613  -3.08923765  -1.59274715
H   -1.74248163  -4.00718975  -1.04938080
H   -1.05582719  -2.50398781  -1.70027934
H   -2.33496604  -3.36963484  -2.59769126
O    0.25973714   0.94027435   3.71206534
H   -0.24434603   0.79353299   2.89794593
C    0.94388418  -0.26431597   4.01774291
H    1.50648940  -0.08142651   4.93726018
H    1.65846160  -0.55838774   3.23309125
H    0.25949887  -1.10798210   4.19835724
O   -3.25987484   0.04023225  -2.19248526
H   -2.46985240   0.13853175  -2.74441373
C   -3.47270429   1.27230119  -1.52222894
H   -4.36614588   1.14399851  -0.90515054
H   -3.65415415   2.10803848  -2.21605635
H   -2.63665102   1.54594811  -0.85972640
O    2.80652163   1.96948893   0.54761513
H    2.24282432   2.52709199  -0.00893445
C    2.82343306   2.53659766   1.84785951
H    3.46275937   1.89623431   2.46160364
H    1.82500062   2.56705537   2.31152136
H    3.24457326   3.55404627   1.86257640
O   -2.30855765  -2.18165189   1.86562361
H   -2.57764869  -2.40861475   0.96312644
C   -3.47467740  -2.17434346   2.67348814
H   -3.15349690  -1.91693670   3.68643930
H   -3.97142367  -3.15644908   2.71207584
H   -4.21254623  -1.42426662   2.34835483
O   -0.83968303   0.02937707  -3.60469581
H   -0.06217151  -0.43449184  -3.26013122
C   -1.09668866  -0.47015439  -4.90736623
H   -1.97533421   0.06294052  -5.28056458
H   -1.32353452  -1.54778708  -4.91247076
H   -0.26443996  -0.28694194  -5.60491381
O    1.77683705  -2.86699367  -0.14379829
H    2.31652419  -2.22689743   0.34347767
C    1.00367206  -3.58714947   0.80284065
H    0.40188345  -4.30358140   0.23710135
H    0.31825404  -2.94021459   1.37244992
H    1.62352671  -4.15106084   1.51737653
O    0.84017745   3.45212642  -0.84041863
H    0.06769501   3.53003717  -0.26108792
C    0.37076712   3.15880915  -2.14661643
H    1.25359695   3.07440712  -2.78612640
H   -0.27244154   3.95356970  -2.55578098
H   -0.17946136   2.20617747  -2.19680436
O   -1.32516076   3.17613132   0.95405638
H   -1.38629415   2.22326339   1.11754552
C   -1.27296939   3.82650203   2.21374991
H   -1.20431959   4.89874683   2.01110863
H   -0.39248904   3.53415675   2.80710134
H   -2.17492766   3.65084712   2.82070458
O    1.32900779  -1.32662776  -2.47673905
H    1.48931467  -1.95271228  -1.75511370
C    2.35869480  -0.35157620  -2.43733224
H    2.16279556   0.34548799  -3.25660644
H    3.35999248  -0.78414498  -2.58920236
H    2.36650599   0.22085086  -1.49656469
O   -1.22952739   0.36489632   1.34972922
H   -1.67267662  -0.46593829   1.57722843
C   -0.27167528   0.08013258   0.34277206
H    0.21806938   1.02665332   0.09836695
H   -0.72766677  -0.31604456  -0.57803887
H    0.50195644  -0.62750468   0.67970057
