72
Energy:   -416.33427452
O    1.90889214   2.92228810   0.83383933
H    1.52246706   3.03938882  -0.04672092
C    1.01523407   3.49415575   1.77558049
H    1.46582920   3.35351031   2.76181985
H    0.02899500   3.00415088   1.77783064
H    0.86635503   4.57403383   1.61913339
O   -3.27209996   0.59665728  -3.04028937
H   -3.41160403   1.01543764  -2.17797568
C   -1.88687418   0.67285149  -3.33673118
H   -1.74745623   0.19667661  -4.31105419
H   -1.26483068   0.13702013  -2.60275299
H   -1.52380682   1.71005714  -3.40859110
O   -1.84694728  -2.33172992   2.29437634
H   -1.07693028  -2.37527699   2.88055102
C   -2.99287243  -2.65876394   3.06407632
H   -3.85091228  -2.60490398   2.38853807
H   -3.16500719  -1.95275217   3.89153891
H   -2.94922814  -3.67754856   3.47994937
O   -1.86217820  -2.81260595  -0.50096437
H   -1.90782223  -2.76525138   0.46552279
C   -3.03352407  -2.20144265  -1.01764805
H   -2.96578969  -2.26349090  -2.10716504
H   -3.11623925  -1.13878301  -0.74071841
H   -3.95538128  -2.71527122  -0.70310581
O    0.50516057  -2.14967674   3.77283913
H    1.27894914  -2.33613354   3.22065402
C    0.64253279  -0.82995075   4.27482115
H   -0.23725824  -0.63636966   4.89448178
H    0.67113544  -0.07209122   3.47631746
H    1.53754129  -0.70543268   4.90429107
O    1.49484486   0.26739713  -2.42770059
H    1.08744347  -0.61121779  -2.44968280
C    2.81469702   0.11750657  -1.92964752
H    3.25895447   1.11640133  -1.91148805
H    3.44081030  -0.52297986  -2.57037885
H    2.83937726  -0.28576575  -0.90517709
O    0.19962452  -2.21826386  -2.30946397
H   -0.51402845  -2.49344011  -1.71498879
C   -0.06943616  -2.76906824  -3.58882110
H    0.74391951  -2.44936112  -4.24587903
H   -1.01694560  -2.40645132  -4.01720429
H   -0.09003634  -3.87011605  -3.58198717
O   -1.61144807   0.34767212   1.34461726
H   -1.75291217  -0.53739611   1.71212974
C   -0.45836878   0.29210184   0.52008475
H   -0.31356638   1.29703420   0.11434047
H   -0.57332304  -0.40412443  -0.32539254
H    0.45003291   0.01483938   1.07749771
O    0.78807309   2.89412615  -1.75334112
H    1.00858558   2.00074929  -2.05612041
C    0.90946483   3.76746526  -2.86468114
H    0.65762425   4.76917732  -2.50602465
H    0.21711389   3.51363242  -3.68260314
H    1.93219777   3.79779328  -3.27195852
O    2.55943050  -2.28910242   1.84561639
H    2.76875832  -1.35769637   1.68103235
C    1.95748014  -2.80905607   0.67095144
H    1.72817768  -3.85872640   0.87367732
H    2.62601634  -2.76833480  -0.20322157
H    1.01680019  -2.29776302   0.41311820
O    3.03541857   0.48286752   1.64101546
H    2.67511777   1.34467808   1.38432664
C    4.25769525   0.71326204   2.32328510
H    4.64984206  -0.26766300   2.60522860
H    4.12655733   1.30553443   3.24241164
H    5.00932154   1.21287946   1.69224019
O   -3.31538464   1.73904295  -0.43139282
H   -2.77077968   1.31151496   0.24613838
C   -2.86466545   3.07757806  -0.56447084
H   -3.48869685   3.54441627  -1.33136855
H   -1.81530071   3.14233314  -0.89221730
H   -2.97481635   3.65777081   0.36505618
