72
Energy:   -418.10767833
O   -2.93309408  -0.97525200   2.14788227
H   -2.39854187  -1.76840363   1.99429937
C   -2.44526772  -0.34837588   3.32329094
H   -3.05839873   0.54297877   3.48153902
H   -1.39557212  -0.02857552   3.23031666
H   -2.53598331  -0.98788400   4.21524238
O    0.37044511   2.99862444   2.12523632
H    0.61492078   2.10917728   2.42110567
C   -1.04618768   3.06923700   2.09879416
H   -1.30427612   4.07741961   1.76346837
H   -1.49832305   2.91319731   3.09076319
H   -1.49473974   2.35025728   1.39548304
O    1.22017255  -1.94213747  -3.03372645
H    0.45185573  -1.47505336  -3.39420527
C    2.36756689  -1.15037526  -3.29665729
H    3.22365776  -1.69109676  -2.88408745
H    2.32239804  -0.16224193  -2.81258124
H    2.54420900  -1.00203427  -4.37349054
O    3.01625587   1.31862710  -0.64426316
H    2.34452108   1.76734432  -1.17891118
C    3.54010916   2.26601293   0.27256375
H    4.29511002   1.74401121   0.86667915
H    2.77576660   2.65914518   0.96104382
H    4.02791922   3.11720234  -0.22773142
O   -1.06219880  -0.42450462  -3.66204810
H   -1.22791264   0.00936683  -2.81192001
C   -0.83465269   0.59082223  -4.62634469
H   -0.64973604   0.08473914  -5.57774941
H    0.04547884   1.20999627  -4.39231617
H   -1.70270452   1.25589382  -4.75651046
O   -3.65313609   1.05647825   0.37165412
H   -3.50774438   0.37323872   1.04282344
C   -4.81000145   0.69591259  -0.36603737
H   -4.95920849   1.47600778  -1.11748528
H   -5.71504600   0.64687126   0.25947572
H   -4.69737805  -0.26600121  -0.89026552
O    0.83912884   2.46982380  -2.03420605
H    0.08292306   1.93960073  -1.74190554
C    0.66091393   3.78566147  -1.53486201
H    1.52131206   4.36932392  -1.87329725
H    0.63456927   3.82300026  -0.43454883
H   -0.25127359   4.26704391  -1.92081825
O    2.78751132  -0.92644336   1.02365425
H    2.93192492  -0.20610035   0.39224793
C    2.96195323  -2.15027463   0.32770827
H    2.79573023  -2.95089496   1.05356102
H    3.97789653  -2.26580491  -0.08130187
H    2.23992234  -2.27895465  -0.49380872
O   -1.18893367  -3.11815584   1.54146821
H   -0.84698806  -3.30551104   0.65467934
C   -0.08140665  -3.05751677   2.42591186
H   -0.48444834  -2.84577395   3.41999816
H    0.62651538  -2.25482310   2.16647673
H    0.47382703  -4.00714744   2.47782024
O    1.21643325   0.40829151   2.92702784
H    1.75173971  -0.12608643   2.32179195
C    1.99044962   0.64417483   4.09227095
H    1.37256640   1.24725484   4.76309136
H    2.91454241   1.20529232   3.88256400
H    2.25987645  -0.28464243   4.61903942
O   -0.22725597  -3.44769932  -1.10802318
H    0.37895361  -3.03832419  -1.74311783
C   -1.45206473  -3.69475692  -1.77984148
H   -2.12317888  -4.15585980  -1.05013254
H   -1.33980595  -4.38934697  -2.62702502
H   -1.92901487  -2.77267441  -2.14734620
O   -1.29121375   0.83457036  -1.13751660
H   -2.11588926   1.00949433  -0.66030053
C   -0.50496392  -0.03165629  -0.33502276
H    0.41998705  -0.21832691  -0.88738584
H   -0.99395595  -1.00099782  -0.15052035
H   -0.23856612   0.41361443   0.63633893
