72
Energy:   -416.01003576
O   -0.44466319   0.00415639   3.53368154
H    0.50966428  -0.09207960   3.39795754
C   -0.63685365   0.75724640   4.72046376
H   -1.71699252   0.85617999   4.85829473
H   -0.20679261   1.76903596   4.65638009
H   -0.22316047   0.25963597   5.61154127
O    2.11725543   2.97164296   0.52302693
H    2.67444389   2.18164964   0.58527520
C    1.41413367   3.10008811   1.74844743
H    0.79153488   3.99464555   1.66113807
H    2.08487449   3.23390021   2.61156876
H    0.75339027   2.24278136   1.95147608
O    0.74945939   3.29264517  -1.91797601
H    1.21740588   3.31099310  -1.06997087
C    1.71491651   3.09331118  -2.93811928
H    1.17085172   3.07520802  -3.88635500
H    2.25201237   2.13751385  -2.83440414
H    2.45706644   3.90554039  -2.98581118
O    2.33003563  -0.16585159   3.03853476
H    2.84897111   0.12500445   2.27398783
C    2.58831428  -1.54705093   3.23376361
H    1.99602689  -1.85824376   4.09854096
H    3.64739770  -1.75482128   3.45274103
H    2.28434931  -2.16239194   2.37252145
O   -0.07910458  -3.24540631   1.11006489
H   -0.75069444  -3.28379686   0.41298778
C   -0.75174990  -3.28517748   2.35846399
H    0.01937682  -3.24107907   3.13235294
H   -1.32696824  -4.21320891   2.50219591
H   -1.43016495  -2.42988670   2.50340548
O    1.89110999  -0.66886781  -2.96837111
H    1.61711969  -0.85470500  -2.05797717
C    0.72114624  -0.39547463  -3.72267526
H    1.04793765  -0.18835074  -4.74531512
H    0.17385260   0.48618662  -3.35400135
H    0.02554766  -1.24871190  -3.75277684
O   -1.80508137  -3.01082729  -1.10665846
H   -2.12054497  -2.21362712  -1.55763283
C   -0.99973092  -3.73395837  -2.02373309
H   -0.65277880  -4.62859589  -1.49958316
H   -0.11516041  -3.16624618  -2.35238976
H   -1.55732472  -4.05633466  -2.91700797
O   -2.63256338   0.73238120   1.88327209
H   -1.92481059   0.43213883   2.47264785
C   -3.26307775  -0.41938516   1.34622492
H   -4.05749153  -0.06305658   0.68484614
H   -3.72246516  -1.05295254   2.12103646
H   -2.57650517  -1.04137554   0.75080625
O    3.41440917   0.44429095   0.46269405
H    2.69952626  -0.13182111   0.15372707
C    4.39306271   0.50352649  -0.56261672
H    5.19082624   1.15636201  -0.19811111
H    4.00253068   0.93182990  -1.49900246
H    4.83327909  -0.48051886  -0.78765363
O   -1.74876994   2.01872370  -2.12385321
H   -0.91613828   2.51202229  -2.16633014
C   -2.50334768   2.54029639  -1.04167571
H   -3.43775672   1.97351124  -1.00821628
H   -2.75416669   3.60465397  -1.17209855
H   -1.99572293   2.41922207  -0.07191519
O   -2.60861708  -0.64454910  -2.39817880
H   -2.33764443   0.28272781  -2.32638310
C   -3.86527675  -0.67607535  -3.05570930
H   -4.15560601  -1.72771079  -3.12821461
H   -3.82207844  -0.26275658  -4.07555186
H   -4.65071747  -0.14278146  -2.49762523
O    1.17842894  -1.09477402  -0.22577890
H    0.83613601  -1.85721235   0.26406457
C    0.22092951  -0.05292068  -0.12443671
H    0.62232264   0.79793754  -0.68158035
H    0.05122715   0.26904239   0.91494687
H   -0.75035142  -0.32344790  -0.56738784
