72
Energy:   -416.30125440
O    1.94103228  -0.00540475   0.16961168
H    2.13939663  -0.52405884   0.96338292
C    0.53415182   0.16612542   0.10797922
H    0.32824734   0.75224170  -0.79177422
H    0.13467824   0.71758975   0.97347635
H   -0.00745002  -0.78911141   0.02450832
O   -1.61267799   1.34626297   2.80307531
H   -1.74143359   0.39658980   2.66177374
C   -2.49188338   2.03470943   1.92810495
H   -2.33383021   3.10281115   2.10033479
H   -3.55154331   1.81003835   2.12665234
H   -2.28533954   1.82582918   0.86674449
O    2.29277468   0.44639688  -2.60482667
H    2.22186285   0.36383205  -1.64223753
C    3.63781836   0.17165929  -2.96247248
H    3.69996038   0.26907578  -4.04973216
H    3.94940888  -0.84961492  -2.69286595
H    4.35044680   0.88195946  -2.51479883
O    0.48886709   3.25175866   2.56289493
H   -0.21855583   2.62096064   2.76306972
C    1.71578407   2.66481384   2.96626113
H    2.50170359   3.38849237   2.73365611
H    1.93933290   1.73224226   2.42486157
H    1.75251408   2.45652403   4.04702178
O    0.50966916  -1.69320332  -3.16534964
H    1.07102674  -0.90420018  -3.13751080
C   -0.84084287  -1.25980386  -3.19391394
H   -1.45935764  -2.16088736  -3.22511027
H   -1.07443844  -0.65442284  -4.08370282
H   -1.12164091  -0.68383605  -2.29826284
O   -3.34844041   0.54213714  -1.37775736
H   -2.69282360   1.22639316  -1.57871399
C   -4.63461179   1.12462834  -1.51560124
H   -5.36094667   0.34035836  -1.28572424
H   -4.83161874   1.48333932  -2.53799648
H   -4.80060533   1.95919842  -0.81651880
O    0.43754548   3.74565597  -0.21587315
H    0.47975640   3.69620126   0.75066487
C    1.76280103   3.63863350  -0.71062331
H    1.69686629   3.69620064  -1.80049662
H    2.23889871   2.68109106  -0.44752482
H    2.41338302   4.45690496  -0.36428215
O    0.07027835  -3.44064832   1.55905956
H    0.33972536  -3.53844626   0.63371792
C   -0.28874752  -4.72572736   2.04093721
H   -0.58956709  -4.59727201   3.08424542
H    0.54911861  -5.43984167   2.01268089
H   -1.13730402  -5.16376786   1.49243952
O   -1.81366913  -1.42239775   2.18790719
H   -1.18013057  -2.14350354   2.05729862
C   -2.84152240  -1.57220138   1.22167207
H   -3.54632486  -0.75201362   1.38301248
H   -3.39099499  -2.52054999   1.32887336
H   -2.46721795  -1.50237314   0.18832918
O    2.04700715  -1.64960127   2.50040193
H    1.41050005  -2.33676574   2.25324412
C    1.57124704  -1.02759760   3.68332100
H    2.29988917  -0.25642693   3.94763453
H    1.49279552  -1.72762455   4.52983441
H    0.59366176  -0.54011768   3.54379433
O    0.97735209  -3.51191882  -1.06689642
H    0.75535097  -2.97754678  -1.84380395
C    2.38792597  -3.48910628  -0.91758235
H    2.62059785  -4.09570171  -0.03815585
H    2.78106921  -2.47475792  -0.74637155
H    2.91408878  -3.92446852  -1.78152086
O   -1.42361429   2.50441894  -1.90480378
H   -0.80579520   2.99345555  -1.34127380
C   -0.88397742   2.48167327  -3.21659968
H   -1.59228630   1.92713452  -3.83810632
H    0.08914132   1.96859392  -3.26726346
H   -0.76848401   3.48898891  -3.64642964
