72
Energy:   -419.24013841
O    3.68093178   0.03131844   0.98452199
H    3.28215630  -0.44147415   1.73008792
C    4.95770389  -0.53932618   0.74629631
H    5.39276115   0.00486151  -0.09636029
H    4.90302205  -1.60473026   0.47298079
H    5.63703847  -0.43578233   1.60685458
O   -0.05495657   2.51732687  -2.88464342
H   -0.34243601   1.66088990  -3.23434980
C   -0.52148295   3.52246476  -3.77041130
H   -0.18896438   4.48047133  -3.36158368
H   -1.61989624   3.54630832  -3.84589019
H   -0.10556698   3.42150037  -4.78510210
O    0.68917991  -3.74852394  -0.34991757
H    1.02779453  -2.84800234  -0.46316177
C   -0.33295133  -3.94833710  -1.31317050
H   -0.70321853  -4.96732543  -1.17157186
H    0.03424622  -3.85920309  -2.34757778
H   -1.17990693  -3.25636474  -1.18426047
O    2.22686713  -1.44143175   2.89052656
H    1.26120700  -1.40568974   2.95869031
C    2.59778254  -2.80263078   2.74189031
H    3.68834583  -2.82465008   2.66657715
H    2.18328991  -3.25912420   1.82942829
H    2.30261277  -3.42043119   3.60443004
O    1.64892542  -1.10259981  -0.64333179
H    2.40608347  -0.66285790  -0.22888999
C    0.51170647  -0.27747429  -0.44728405
H   -0.33186249  -0.78762828  -0.92016830
H    0.61871669   0.71276144  -0.91713438
H    0.26983252  -0.13265746   0.61728273
O   -2.79243931  -1.31590786  -2.03801981
H   -2.87020858  -0.71529408  -1.28195216
C   -4.07451268  -1.87365426  -2.27831254
H   -3.96882227  -2.54750161  -3.13285599
H   -4.82804616  -1.11262457  -2.53482462
H   -4.44967664  -2.46041297  -1.42523367
O    1.07089774   3.37410874  -0.45645426
H    0.70210592   3.14680102  -1.32291088
C    2.46360035   3.10730137  -0.49801218
H    2.86306051   3.36883146   0.48561315
H    2.99022569   3.71267425  -1.25231103
H    2.68775669   2.04565112  -0.68624079
O   -2.15090383   1.06572368   2.75239037
H   -1.42090670   1.67614101   2.57095676
C   -2.83242427   1.53961711   3.90282015
H   -3.65138146   0.84060118   4.09300702
H   -3.26561698   2.54166099   3.75780471
H   -2.19038025   1.56472712   4.79720614
O   -2.88694777   0.53250220   0.06583472
H   -2.75842788   0.66123765   1.01732466
C   -2.56775076   1.75418958  -0.58079268
H   -2.71791200   1.59149640  -1.65152501
H   -1.52038767   2.05676575  -0.42505070
H   -3.21963766   2.58443415  -0.26692207
O   -0.59628812  -1.29275919   2.98245839
H   -1.21042093  -0.54359136   2.97903513
C   -1.17846462  -2.33009910   2.20945760
H   -0.47375892  -3.16596241   2.22386591
H   -1.34079984  -2.03849795   1.15998469
H   -2.13562076  -2.68336542   2.62398427
O   -1.00126902   0.01984386  -3.75333034
H   -1.63408143  -0.51700917  -3.25356984
C    0.08530331  -0.81856777  -4.11244074
H    0.78848244  -0.19805311  -4.67456694
H   -0.22003535  -1.65781601  -4.75680712
H    0.61453098  -1.22705643  -3.23732222
O    0.04896302   2.61568951   2.06396592
H    0.41405948   2.96848375   1.23894225
C    1.11591034   2.02557609   2.78917165
H    0.68715477   1.63333913   3.71534876
H    1.90061755   2.75054100   3.05645015
H    1.58549140   1.18857727   2.24907543
