72
Energy:   -417.00139010
O    1.05882289   0.20788148  -2.02407142
H    1.86615143  -0.32493288  -1.97160461
C    0.39412653   0.10629404  -0.77491469
H   -0.51279796   0.71219470  -0.85144943
H    0.99629367   0.49708228   0.06022399
H    0.09564329  -0.92618713  -0.53477366
O    0.27599553   0.00739242   3.26026663
H   -0.23084480  -0.80728812   3.12673097
C   -0.60583622   1.10055880   3.06053226
H   -0.01878204   2.00999108   3.21475778
H   -1.44225138   1.10857137   3.77685818
H   -1.02114985   1.13111025   2.04104292
O   -0.72973895   1.44523177  -3.81374701
H   -0.11793771   1.04410656  -3.17875009
C   -0.19160587   1.25054796  -5.11183975
H   -0.89306658   1.70830498  -5.81461752
H   -0.09053768   0.18598046  -5.37501003
H    0.78839942   1.73547709  -5.24302931
O    2.65345383   1.05866375   2.23089654
H    1.87117550   0.65598751   2.63625532
C    3.59629694   1.30122067   3.26276223
H    4.47101314   1.75478443   2.78880371
H    3.92164404   0.37790435   3.76715648
H    3.22071340   2.00039317   4.02622287
O   -2.74103316  -1.61644873  -1.04075511
H   -2.87115019  -0.75312701  -0.62103088
C   -2.59142633  -1.39919760  -2.43465379
H   -2.44583577  -2.38165821  -2.89188428
H   -1.71557265  -0.77695119  -2.67645342
H   -3.48153052  -0.93870456  -2.89120394
O   -3.03225819   0.88505983   0.22431743
H   -2.47380960   1.67660596   0.22068676
C   -4.38493084   1.31262323   0.22427395
H   -5.00011573   0.40873398   0.22839381
H   -4.64557053   1.89888138  -0.67079347
H   -4.64349989   1.90561389   1.11549865
O    1.46512611   3.18284564   0.79086298
H    1.94592128   2.50322710   1.28621935
C    2.17357518   3.41831020  -0.41544963
H    1.61843177   4.18618217  -0.96104439
H    2.23535458   2.52318816  -1.05397697
H    3.19460093   3.79308814  -0.24274975
O    1.97231872  -3.12877220   0.20795892
H    1.02260117  -3.27972592   0.09102806
C    2.16905829  -2.61825106   1.51684986
H    3.24390493  -2.45393357   1.63169611
H    1.84550326  -3.32107824   2.30051013
H    1.65740866  -1.65674360   1.67962389
O   -1.15476535  -2.31933634   2.54505778
H   -1.02011010  -2.79863939   1.71405848
C   -2.53545872  -2.00879723   2.64397708
H   -2.66943703  -1.46922023   3.58546084
H   -3.17237924  -2.90676767   2.67152112
H   -2.88503175  -1.35979792   1.82582310
O    3.34129815  -1.39685595  -1.56338916
H    2.99496655  -2.08526113  -0.97638319
C    4.22233982  -0.58582943  -0.80277406
H    4.60328343   0.18417538  -1.47913178
H    5.08240654  -1.14798081  -0.40648074
H    3.71870259  -0.08313971   0.03771979
O   -0.85369693  -3.42560241  -0.05767066
H   -1.51522307  -2.85996661  -0.48295008
C   -1.00426504  -4.73443456  -0.58380889
H   -0.25166442  -5.35837076  -0.09413438
H   -0.82996491  -4.77864665  -1.67029040
H   -1.99523346  -5.16608734  -0.37301324
O   -1.31311128   3.12483864   0.20770464
H   -0.37864579   3.23127144   0.43980284
C   -1.50538036   3.69596512  -1.07657762
H   -2.56298327   3.56743332  -1.32242484
H   -0.91030531   3.19688587  -1.85733553
H   -1.27759307   4.77312562  -1.10138773
