72
Energy:   -421.95731040
O   -0.79296714  -0.86716971   3.32189147
H   -0.21814881  -1.64516276   3.37417888
C   -2.00765157  -1.26984349   2.70957672
H   -2.64328786  -0.38167008   2.65858941
H   -2.54160160  -2.03894367   3.28936944
H   -1.86304127  -1.64545120   1.68449914
O   -1.93009145  -1.91424187  -1.06536033
H   -2.42595319  -1.13073701  -0.78488832
C   -1.38487893  -1.64272124  -2.34659163
H   -0.82970993  -2.53536256  -2.64736408
H   -0.68557770  -0.79201220  -2.33957399
H   -2.15884312  -1.45006331  -3.10595958
O    3.15097501  -0.94589356  -1.49691601
H    3.46681511  -0.55484138  -0.66881789
C    2.70045620  -2.25973934  -1.20816720
H    2.34824590  -2.68552918  -2.15163745
H    1.86297437  -2.27459178  -0.49319803
H    3.50116863  -2.90791874  -0.81893667
O   -0.23850563  -3.66458877   0.32261282
H   -0.82464623  -3.09243527  -0.19459395
C   -0.87321855  -4.92671418   0.45189064
H   -0.19955682  -5.55868111   1.03694010
H   -1.04495476  -5.41774516  -0.51876511
H   -1.83453013  -4.86656524   0.98578152
O    1.47131052   0.48786624  -3.20968188
H    2.06480868  -0.05247391  -2.66726532
C    2.17469590   0.85004711  -4.38722500
H    1.49175150   1.45817215  -4.98660475
H    2.47313580  -0.02225193  -4.98955826
H    3.07310806   1.45154915  -4.17787311
O    0.87960656  -3.09896301   2.84583041
H    0.56657962  -3.37393933   1.97128742
C    2.21933605  -2.65470061   2.70338888
H    2.55624804  -2.34876813   3.69756232
H    2.31061663  -1.78789242   2.03027021
H    2.89404703  -3.44699877   2.34310279
O   -2.54612639   2.74152223   1.19142034
H   -1.87936335   3.33368857   0.81301665
C   -2.24941594   2.58405833   2.56971705
H   -3.00994793   1.91434541   2.98027873
H   -2.29470146   3.53362707   3.12563589
H   -1.26260731   2.12683734   2.74273451
O   -3.26381688   0.38034764  -0.14230069
H   -3.04300996   1.19515666   0.33283493
C   -4.67721419   0.25921570  -0.15529596
H   -4.90849271  -0.66359657  -0.69419575
H   -5.17067982   1.09304749  -0.67873989
H   -5.10661294   0.18087394   0.85577110
O    0.93441419   0.63869649   1.65390231
H    0.31586079   0.24449844   2.28669205
C    0.37221594   0.49972405   0.35885267
H    1.08166512   0.94886318  -0.34146233
H   -0.58986765   1.02530744   0.25428407
H    0.22649011  -0.55273091   0.06923244
O   -0.46914382   4.20021052  -0.01939883
H   -0.28149297   3.75562046  -0.85936913
C    0.74823448   4.28516511   0.70400048
H    0.51875606   4.78842896   1.64716025
H    1.51446629   4.87679621   0.17898735
H    1.17308386   3.29671511   0.93904712
O   -0.10199278   2.65260736  -2.34577824
H    0.43977996   1.92821078  -2.69241230
C   -1.45517729   2.36765949  -2.66236971
H   -2.05143521   3.19342088  -2.26477719
H   -1.81278783   1.43456664  -2.19952010
H   -1.63468020   2.30840070  -3.74728650
O    3.64211823   0.36190302   0.95279221
H    2.74405298   0.49695430   1.28993197
C    4.21321252   1.64040482   0.72515605
H    5.22435896   1.46977232   0.34574515
H    4.29053226   2.24144070   1.64469662
H    3.66060998   2.22521639  -0.02677692
