72
Energy:   -417.52203400
O    1.45065784  -0.20191721  -1.17906338
H    2.19168749  -0.11452082  -0.56127685
C    0.25213531  -0.02075663  -0.44200275
H   -0.57230014  -0.12238082  -1.15296261
H    0.18361149   0.97660261   0.01990241
H    0.11881248  -0.77850537   0.34591805
O   -0.03658248   0.45999999   3.26056852
H   -0.35991500  -0.43084998   3.05990540
C   -1.08720207   1.37192492   2.98285432
H   -0.70605312   2.37024469   3.21430262
H   -1.97933559   1.19470718   3.60371580
H   -1.39222644   1.35980297   1.92474727
O    0.54094721   0.64051464  -3.72737782
H    0.86735168   0.40521280  -2.84617612
C    1.28550250  -0.10680623  -4.67589388
H    0.90503524   0.17033597  -5.66276878
H    1.15930634  -1.19404022  -4.55434507
H    2.36209661   0.12330312  -4.64810658
O    2.25889633   1.93404744   2.73707706
H    1.47866475   1.42829741   3.00888370
C    2.83755315   2.49359154   3.90523820
H    3.71490556   3.05978443   3.58094886
H    3.17147710   1.72799325   4.62296474
H    2.15808604   3.18586326   4.42664174
O   -3.06374049  -1.22399973  -1.82458975
H   -3.15733417  -0.50754880  -1.17932891
C   -2.90823908  -0.63273071  -3.10472804
H   -2.80416724  -1.45364772  -3.81939545
H   -2.00802500  -0.00234292  -3.17546126
H   -3.77959004  -0.02890780  -3.40292719
O   -3.15774612   0.93580758  -0.02465936
H   -2.60145057   1.72225211  -0.12695078
C   -4.41092875   1.35878976   0.48832518
H   -5.02502542   0.46075102   0.59739815
H   -4.93571122   2.05107611  -0.18852066
H   -4.32635321   1.83666080   1.47689160
O    1.20888568   3.45883229   0.58335118
H    1.62123800   3.02896052   1.34728776
C    2.14200245   3.42582225  -0.48470183
H    1.66145370   3.91399320  -1.33690323
H    2.40891624   2.40036053  -0.78463952
H    3.06962289   3.97355010  -0.25602775
O    0.84535617  -3.68217372   0.87614481
H    0.97558985  -3.54011402  -0.07321366
C    1.42348735  -4.93464067   1.20724093
H    1.26785632  -5.07876567   2.27985090
H    2.50678817  -4.96787606   1.01196658
H    0.94894703  -5.77540410   0.67742428
O   -0.88984663  -2.09115342   2.42075946
H   -0.31355213  -2.72247326   1.96497093
C   -2.14937753  -2.10934858   1.76823771
H   -2.78607805  -1.39282151   2.29424778
H   -2.63690769  -3.09583265   1.81229283
H   -2.08626798  -1.79974084   0.71327915
O    3.34946843   0.08246551   0.88679735
H    3.14192698   0.76240054   1.54485372
C    3.22291008  -1.18121764   1.51895370
H    3.46010439  -1.93544953   0.76373298
H    2.20205416  -1.37346571   1.88456443
H    3.92276582  -1.30810197   2.35971505
O    1.12037788  -2.95480072  -1.83744353
H    1.23114043  -1.99850535  -1.72948943
C   -0.19813715  -3.18502703  -2.30760067
H   -0.30585396  -4.26688078  -2.42368146
H   -0.38880835  -2.71608583  -3.28561702
H   -0.96822906  -2.83921657  -1.60038718
O   -1.43274899   3.12090262  -0.37797454
H   -0.55020919   3.34230401  -0.04551671
C   -1.40002522   3.23047980  -1.79199567
H   -2.40177783   2.97779156  -2.14994197
H   -0.68555785   2.53272329  -2.25616112
H   -1.16231534   4.24990078  -2.13412463
