72
Energy:   -416.42844693
O    2.75737837   0.23189918  -1.75376766
H    2.47779002   0.37308422  -0.83707773
C    4.00420002  -0.44418980  -1.72421717
H    4.30443837  -0.59516980  -2.76467244
H    3.94122182  -1.43146613  -1.24038195
H    4.79235074   0.13893334  -1.22265642
O   -2.71141154  -0.97078160   1.44289878
H   -2.60763765  -0.09328994   1.83996633
C   -4.09840654  -1.19121457   1.24242946
H   -4.19726185  -2.18379298   0.79465615
H   -4.55013505  -0.45971254   0.55422639
H   -4.67070133  -1.18260137   2.18327047
O    1.40353406  -3.68245523  -0.42156133
H    0.53640264  -3.59044347   0.00038679
C    1.30602398  -3.13946928  -1.72853946
H    2.29117671  -3.25125620  -2.18947654
H    1.04984897  -2.06842055  -1.72602799
H    0.57326441  -3.67054305  -2.35607542
O    1.90613672   0.36359150   0.92432006
H    2.26437636  -0.46460272   1.27671468
C    0.49710057   0.22182799   0.84033198
H    0.10983502   1.16340608   0.44165755
H    0.02798981   0.04785176   1.82137464
H    0.19102381  -0.58844448   0.16021958
O   -0.92666678  -3.09781980   1.06601266
H   -1.58853435  -2.39787078   1.16812029
C   -0.37699563  -3.36064803   2.34715150
H    0.36645863  -4.15121389   2.21386013
H   -1.12947803  -3.71762500   3.06764786
H    0.13038826  -2.48435755   2.78011099
O   -1.67629145   1.96001914  -1.75178149
H   -1.82702013   1.12518159  -2.21948910
C   -2.78171362   2.17581617  -0.88922295
H   -2.59565043   3.12006342  -0.37031756
H   -2.88986365   1.38491556  -0.13056813
H   -3.73448608   2.26754309  -1.43382203
O    0.79033720  -0.21432414  -3.69937904
H    1.52159636  -0.06630166  -3.08150149
C    0.62167393   0.97200161  -4.45879834
H   -0.20569767   0.78790731  -5.14948694
H    1.51282949   1.22639119  -5.05369752
H    0.35957456   1.84177557  -3.83624351
O   -0.55512472   3.61529752   1.81869736
H   -0.31183904   3.86250110   0.91419433
C    0.63927522   3.54052242   2.58050525
H    0.34698779   3.26106963   3.59635928
H    1.17228530   4.50286906   2.63116629
H    1.33691833   2.77632531   2.20357797
O    0.11618031   3.95441088  -0.90334146
H   -0.48189008   3.29737597  -1.28939873
C    1.44446686   3.55450340  -1.20043173
H    2.10493765   4.30540313  -0.75837615
H    1.64550224   3.51764749  -2.28256100
H    1.70117435   2.57575008  -0.76578184
O   -1.92800469  -0.55554155  -3.00627736
H   -1.01408643  -0.58412351  -3.32621450
C   -2.09189891  -1.61447906  -2.07658720
H   -3.12657578  -1.56763329  -1.72625241
H   -1.43045020  -1.51815542  -1.20138169
H   -1.92885609  -2.60567270  -2.52795126
O   -2.34098473   1.57972998   2.54653074
H   -1.72485100   2.28860322   2.30925191
C   -3.07753094   2.01100875   3.67968213
H   -3.76655246   1.20086746   3.93346480
H   -3.67294979   2.91580066   3.48067129
H   -2.43760320   2.20180766   4.55539076
O    2.92040735  -2.21706404   1.42392637
H    2.48097720  -2.78032048   0.76965838
C    3.98048067  -2.96716737   1.99499845
H    4.46461402  -2.31789838   2.72953905
H    4.73712438  -3.26691683   1.25309691
H    3.62886735  -3.87071523   2.51724998
