72
Energy:   -416.31768700
O    3.46895807  -0.19689791   0.03553373
H    3.26903958   0.60072219   0.54764510
C    3.38096991  -1.30645100   0.91512670
H    3.60899027  -2.19630384   0.32212261
H    2.37413563  -1.43057525   1.34367685
H    4.10630023  -1.25216476   1.74200412
O    2.57877591  -1.26625693  -2.41344100
H    2.89790098  -0.92395815  -1.56525824
C    3.67656829  -1.28166869  -3.31185524
H    3.29955073  -1.66982231  -4.26194983
H    4.49304228  -1.93913347  -2.97438285
H    4.09136905  -0.27784994  -3.49369466
O    2.67699535   2.00998661   1.59865150
H    2.21804564   2.05674643   2.45047423
C    2.24492759   3.11142096   0.81590404
H    2.77152279   3.04337247  -0.13989515
H    2.49274277   4.08179805   1.27387050
H    1.16295221   3.08968532   0.61185954
O   -0.84738571   0.08740601   3.92992123
H   -1.42892675   0.43294078   3.23649567
C   -0.23251035  -1.08898894   3.42936456
H    0.41891973  -1.46500728   4.22292253
H    0.38804287  -0.89888101   2.53967360
H   -0.96067379  -1.87759483   3.18307997
O    0.18682106  -2.98039188   0.68767264
H   -0.69013854  -2.72745883   0.36303438
C    0.82434185  -3.73002966  -0.33416112
H    1.81063797  -4.00679474   0.04807738
H    0.96716482  -3.15118650  -1.26007662
H    0.28262246  -4.65591647  -0.58326159
O   -3.50379170  -0.27815452  -1.98265267
H   -2.94563557   0.27025120  -2.55373601
C   -4.31109579   0.59211421  -1.20584755
H   -4.93337404  -0.04194158  -0.56848718
H   -4.97768127   1.21632062  -1.82132094
H   -3.71859021   1.25377873  -0.55476036
O    1.20287501   2.00625430   3.98896704
H    0.49320414   1.35117418   4.06420374
C    1.89612282   2.03385789   5.22637533
H    2.69185870   2.77671922   5.12416642
H    2.36144252   1.06713387   5.47476935
H    1.25284480   2.33619666   6.06754237
O   -0.85221203   1.51257756  -0.68883727
H   -1.10339176   1.51180840  -1.62442875
C    0.11833543   0.49473763  -0.50289836
H    0.39010356   0.50946816   0.55606825
H    1.03260699   0.66615226  -1.09239125
H   -0.26662361  -0.50881505  -0.74261878
O   -2.36907215  -2.19051737  -0.23582125
H   -2.79367517  -1.56321097  -0.83966082
C   -3.09593304  -2.17458604   0.98235494
H   -2.60429311  -2.88652874   1.65087044
H   -4.14316678  -2.49133147   0.85685138
H   -3.08761823  -1.18702185   1.46961789
O   -2.17388268   1.39261189   1.79249251
H   -1.73518135   1.39772164   0.92881531
C   -2.08568244   2.70340370   2.32782355
H   -2.58462259   2.67975991   3.30044110
H   -2.59367883   3.45352469   1.70169617
H   -1.04561615   3.02924393   2.48551816
O   -1.56907828   1.21177858  -3.43005013
H   -0.96040298   0.50622032  -3.69486177
C   -1.36711194   2.30686409  -4.30898762
H   -2.06044913   3.09246289  -3.99657241
H   -1.58626719   2.05572680  -5.35859630
H   -0.34472885   2.71256080  -4.25494745
O    0.18155833  -0.91227602  -3.83967377
H    1.02259249  -1.07299867  -3.38662516
C   -0.65463003  -2.03414476  -3.60572220
H   -1.59746120  -1.83651875  -4.12292482
H   -0.87617001  -2.18396947  -2.53742921
H   -0.23412962  -2.96915532  -4.00785651
