72
Energy:   -416.29708889
O   -1.17719477  -0.00975129  -3.26857513
H   -0.39337128   0.49789209  -3.01100534
C   -1.94527312   0.79942488  -4.14483043
H   -2.82412185   0.21244877  -4.42513234
H   -1.40241953   1.06251273  -5.06617298
H   -2.29352902   1.72956570  -3.66908553
O    0.91468332   0.77310444   2.52791674
H    0.73735725  -0.14659502   2.77516487
C   -0.07239939   1.58300442   3.14619137
H    0.14222933   2.61544514   2.85725217
H   -0.04405755   1.52322532   4.24546410
H   -1.09289927   1.33986169   2.81117056
O    1.13477921   1.20270439  -2.32510609
H    1.41639921   1.57243252  -1.47515636
C    2.16378404   0.33904800  -2.78093552
H    1.83025532  -0.06867744  -3.73906065
H    2.34593678  -0.50389196  -2.09606331
H    3.11739449   0.86429217  -2.94683608
O   -3.25347196  -0.00344005   1.52253755
H   -2.87605114  -0.46802644   0.76087077
C   -3.13728278  -0.85810085   2.64885401
H   -3.56707671  -0.31935682   3.49768689
H   -2.09104194  -1.10041175   2.89266304
H   -3.69285350  -1.80101821   2.52627604
O    2.37524918  -2.54131145   0.85870293
H    2.30513994  -2.83249968  -0.06255566
C    3.15691699  -1.35760147   0.87767400
H    3.22581877  -1.04334292   1.92265214
H    2.69935044  -0.53661104   0.30375337
H    4.17940095  -1.51713041   0.50103836
O    1.85732902   2.07206836   0.23224184
H    1.56284372   1.67857317   1.06702518
C    1.91567135   3.47756372   0.41585211
H    2.24899251   3.90487753  -0.53377156
H    2.63462959   3.77512835   1.19516699
H    0.93556136   3.91532493   0.66187420
O   -1.95226720  -1.08646703  -0.74542002
H   -1.79241523  -0.74190138  -1.63656824
C   -0.69237200  -1.39410684  -0.17048037
H   -0.89088938  -1.78085370   0.83276581
H   -0.04217382  -0.51060629  -0.07328755
H   -0.14591336  -2.16755667  -0.73256190
O   -0.07711115  -2.60854510  -3.57221445
H   -0.50096742  -1.73767706  -3.59113511
C   -1.09381942  -3.57786687  -3.37408981
H   -0.59908049  -4.55273419  -3.35532037
H   -1.83642976  -3.58751150  -4.18724059
H   -1.62608086  -3.44671549  -2.41895924
O   -1.19643511   4.82233747   2.00095126
H   -1.67775686   4.09429639   1.58058376
C   -2.15561468   5.73427982   2.51170509
H   -1.59646013   6.54788054   2.98168941
H   -2.80753126   5.28228922   3.27556804
H   -2.79184220   6.16766978   1.72419953
O    2.08498132  -3.19918385  -1.87219773
H    1.36543456  -3.04093039  -2.50119023
C    2.94711533  -4.17206327  -2.44032126
H    3.75175676  -4.33836788  -1.71894747
H    3.40062883  -3.83770510  -3.38652813
H    2.44322701  -5.13508307  -2.61771002
O    0.63429631  -1.99255472   3.01157661
H    1.21769884  -2.28633609   2.29620449
C    1.01811801  -2.68192177   4.19055402
H    0.35097871  -2.33921923   4.98614519
H    2.05335085  -2.46106397   4.49435025
H    0.90814374  -3.77389269   4.09954579
O   -2.55871538   2.65673023   0.81046351
H   -2.91258372   1.80588052   1.10921969
C   -1.73873284   2.40870823  -0.32030946
H   -1.34840691   3.37743736  -0.64387513
H   -2.29617088   1.96714735  -1.16118052
H   -0.88263919   1.75547567  -0.08972712
