72
Energy:   -416.24523721
O   -2.29816219  -0.82501162   2.75268155
H   -1.55217137  -1.35222408   2.43024089
C   -2.95140626  -1.57647167   3.76318328
H   -3.78889448  -0.96807878   4.11525826
H   -2.29841328  -1.78928392   4.62404822
H   -3.35568158  -2.53026839   3.38953824
O    1.58227988   4.12873068  -0.77434005
H    1.79576962   3.23113317  -1.06957573
C    2.45967267   4.45092642   0.29285514
H    2.20550699   5.46493091   0.61329217
H    3.51839438   4.44396359  -0.01019138
H    2.34144061   3.77980641   1.15795424
O   -0.04902457  -2.33433235   1.95975494
H    0.77168087  -2.03442430   2.37799053
C    0.18874292  -2.42943010   0.56442100
H   -0.74564569  -2.76840334   0.10889902
H    0.97444373  -3.15991904   0.31574959
H    0.45785016  -1.46212337   0.11200932
O    1.51628870   1.14588713   1.43228435
H    1.66215913   1.27518608   0.48337610
C    0.14568472   1.40009640   1.69563988
H   -0.00115541   1.24993606   2.76866134
H   -0.52531529   0.71082792   1.15950064
H   -0.14980773   2.43257858   1.45183239
O   -2.45821094  -0.73736986  -1.44751462
H   -2.58555794   0.15103240  -1.08289502
C   -3.33457703  -1.61498701  -0.75881701
H   -3.17816069  -2.61099676  -1.18188168
H   -4.39480966  -1.34946240  -0.89365317
H   -3.12366437  -1.66571742   0.32086795
O   -0.62052219  -2.28080072  -2.87929029
H   -1.28662015  -1.76996810  -2.39577522
C   -0.77276129  -1.98934566  -4.25929427
H   -0.01495085  -2.57289144  -4.78908940
H   -0.60723449  -0.92531397  -4.48997756
H   -1.76111526  -2.27965855  -4.64871972
O   -1.19983348   4.19489280  -0.44685760
H   -0.23683299   4.27613197  -0.51359238
C   -1.77398475   5.12788938  -1.34819077
H   -2.85876343   5.02301478  -1.26020358
H   -1.49606995   4.93334642  -2.39589957
H   -1.51102113   6.16965624  -1.10663481
O    1.94825198  -3.25560495  -2.35146444
H    1.05215122  -2.96273900  -2.57430122
C    1.94333029  -4.67398072  -2.32463679
H    2.96009030  -4.98694780  -2.07217714
H    1.68170393  -5.11680976  -3.29840855
H    1.26126672  -5.08251966  -1.56262461
O    3.33587295  -1.00327025  -1.40758998
H    2.99195688  -1.83442073  -1.76722019
C    3.89714163  -1.28431844  -0.13537806
H    4.27969835  -0.33748990   0.25532806
H    4.73618686  -1.99562618  -0.18849808
H    3.15588089  -1.67412161   0.57971867
O    1.88413030   1.38006457  -1.38187538
H    2.46775874   0.61539464  -1.49624759
C    0.63957147   1.06579164  -1.98589493
H   -0.00565382   1.93764540  -1.84790743
H    0.14680807   0.19899394  -1.51832321
H    0.72783337   0.87405467  -3.06673909
O   -2.73683240   1.84720531  -0.37421805
H   -2.24769166   2.68309229  -0.39560892
C   -3.46664959   1.80656490   0.84161459
H   -4.01167972   0.85874223   0.84933060
H   -4.20081894   2.62321714   0.92439021
H   -2.81564286   1.83324781   1.72945219
O    2.20317237  -1.02932407   3.06079087
H    2.05565272  -0.21697059   2.55409268
C    1.91202872  -0.74747430   4.42032383
H    2.08336466  -1.67298715   4.97670063
H    0.86509152  -0.44385973   4.57690613
H    2.56647908   0.03096583   4.84282003
