72
Energy:   -420.74498742
O    3.33264756  -1.08313763  -2.18030151
H    2.55694504  -1.47963972  -2.60396997
C    3.82350602  -2.01124752  -1.22625550
H    4.69691523  -1.54875020  -0.75856141
H    4.14346115  -2.96108223  -1.68256688
H    3.09104675  -2.23523677  -0.43498464
O   -2.29261429   1.35596120  -1.00754965
H   -2.69164905   1.18783907  -0.14098777
C   -1.53362128   2.55030357  -0.90750121
H   -1.09122031   2.72478972  -1.89204230
H   -0.71549197   2.47406784  -0.17426872
H   -2.15027128   3.42573463  -0.65032310
O   -1.40630938  -0.36528846  -3.03199043
H   -1.74032522   0.25300564  -2.36523027
C   -2.26863149  -0.29322611  -4.15615296
H   -1.87792518  -0.99570791  -4.89733654
H   -2.28906514   0.70864885  -4.61288742
H   -3.30276451  -0.58788721  -3.91841138
O    2.03696183  -0.83716594   3.10923739
H    1.70142136   0.06791427   3.19088094
C    3.40360356  -0.75763074   2.73708375
H    3.76569242  -1.78559447   2.64951992
H    4.01995363  -0.24153895   3.48977173
H    3.55161773  -0.25967520   1.76604852
O   -1.83966372  -3.04633343   0.59074292
H   -0.94424826  -2.67762707   0.56409588
C   -2.58550509  -2.44137455  -0.45342142
H   -3.59126596  -2.86793585  -0.40897211
H   -2.16902346  -2.65226371  -1.45084116
H   -2.67220909  -1.34974562  -0.33677655
O   -3.34302606   0.75700684   1.51925749
H   -3.14041712  -0.01881038   2.06283870
C   -4.72777702   1.03130677   1.65982106
H   -4.93879861   1.90779456   1.04117395
H   -5.01097307   1.26938767   2.69707455
H   -5.36313091   0.20372499   1.30738500
O    1.84462969   2.89060004   0.45350616
H    2.12143879   2.48682775  -0.38241724
C    2.75743817   3.93531675   0.74995421
H    2.43094979   4.37920268   1.69433539
H    2.76133760   4.72666717  -0.01589606
H    3.78935252   3.57384561   0.88136472
O    1.01309844   1.76964717   2.88855728
H    1.28388715   2.21832772   2.07382879
C   -0.34134413   2.11016310   3.13769174
H   -0.63013339   1.59646550   4.05866989
H   -1.01796050   1.77782508   2.33487229
H   -0.48702829   3.19111696   3.28965300
O    0.67545629  -1.78596548   0.81074874
H    1.15593259  -1.60931378   1.63315982
C    0.52139820  -0.55165903   0.12862891
H   -0.02164043  -0.76888858  -0.79517062
H    1.48495820  -0.09209675  -0.14180034
H   -0.06415283   0.18215218   0.70432712
O    2.63352977   1.62652265  -1.91139417
H    3.01269165   0.74001515  -2.00501031
C    1.72053026   1.81921403  -2.97996130
H    1.30277335   2.82239929  -2.85919830
H    0.88805952   1.09845804  -2.96320962
H    2.20489613   1.76774233  -3.96764429
O    0.88696954  -1.99463499  -3.26027552
H    0.08180566  -1.45741916  -3.22111500
C    0.59435701  -3.25219252  -2.67251644
H    1.51185926  -3.84458227  -2.72494928
H   -0.19624956  -3.79905233  -3.20979005
H    0.30165746  -3.16912027  -1.61411987
O   -2.70377193  -1.60445385   2.87463609
H   -2.48988805  -2.24787469   2.18276428
C   -1.58600672  -1.51978647   3.74409922
H   -1.84389223  -0.79093039   4.51724156
H   -0.67577885  -1.16824825   3.23352755
H   -1.35900495  -2.47687632   4.23930277
