72
Energy:   -420.06038942
O    2.99441773  -1.68995046  -1.97433005
H    2.19369290  -1.78911037  -2.51045535
C    3.07457491  -2.81119878  -1.10893373
H    3.98196549  -2.68342873  -0.51244202
H    3.15601980  -3.76440637  -1.65440541
H    2.21894237  -2.87776374  -0.41883273
O   -1.76846658   2.20086393  -1.25524682
H   -2.23829030   1.94670021  -0.44710713
C   -0.94844336   3.31580954  -0.94381149
H   -0.42655797   3.58899724  -1.86494629
H   -0.19134482   3.08607179  -0.17778297
H   -1.52844632   4.18966948  -0.60803967
O   -1.48795719   0.21797992  -3.23255522
H   -1.57015720   0.96967672  -2.62706504
C   -2.71327511  -0.49624983  -3.20084331
H   -2.60333042  -1.33938157  -3.88824874
H   -3.56799285   0.11045312  -3.53869896
H   -2.94554535  -0.89806241  -2.20215692
O    2.04358627  -0.75634662   2.66244041
H    1.73577759   0.13402297   2.88809297
C    3.27102118  -0.62323054   1.96371485
H    3.60354155  -1.63523348   1.71720834
H    4.05571043  -0.14425824   2.57003626
H    3.16607770  -0.05981862   1.02332598
O   -2.36971463  -2.76979483  -0.19704779
H   -1.55279340  -2.37939585   0.14741063
C   -3.05251453  -3.36997874   0.89203317
H   -3.97007618  -3.80474396   0.48639165
H   -3.33404245  -2.64314480   1.66999961
H   -2.47202988  -4.17763866   1.36479141
O   -3.05636663   1.20204811   1.04548767
H   -2.74471128   0.65473048   1.78151595
C   -4.15976710   0.53694522   0.45161957
H   -4.49834052   1.16697316  -0.37537379
H   -5.00255831   0.40605554   1.14828893
H   -3.89138151  -0.44932366   0.04171690
O    2.37098476   2.76512560   0.53444076
H    2.56809320   2.22947976  -0.24828210
C    3.50602230   3.57377986   0.79958572
H    3.26693460   4.17050013   1.68403311
H    3.73805057   4.26477921  -0.02592025
H    4.40773995   2.98156791   1.02087201
O    1.11143788   1.90052902   2.87187021
H    1.53784909   2.28586886   2.09205615
C   -0.16133203   2.51115197   3.01233423
H   -0.62779856   2.06564163   3.89517891
H   -0.81923209   2.32644355   2.14872110
H   -0.09583647   3.59866857   3.17294344
O   -0.04534962  -1.49204161   0.92204978
H    0.75533177  -1.43577895   1.46442152
C    0.00227205  -0.43810123  -0.02635711
H   -0.90680895  -0.51628477  -0.62880569
H    0.86780699  -0.51375078  -0.70304296
H    0.01524391   0.55736344   0.44444981
O    2.91770393   1.11086939  -1.64325461
H    3.08303173   0.16417065  -1.76512130
C    2.09910781   1.54655292  -2.71685324
H    1.92267628   2.61472128  -2.56396939
H    1.12204531   1.03900746  -2.73974005
H    2.58093951   1.41721932  -3.69863141
O    0.53753199  -1.75970630  -3.32731010
H   -0.16554968  -1.09535809  -3.37966361
C   -0.07889302  -3.02664963  -3.16175472
H    0.72719807  -3.76315273  -3.10460980
H   -0.72903914  -3.29712270  -4.00847290
H   -0.66948472  -3.09431640  -2.23471644
O   -1.90213251  -0.61346363   2.87160096
H   -1.27542680  -0.94955958   2.21379953
C   -1.36080904  -0.87740012   4.15606202
H   -2.07922342  -0.49248075   4.88489881
H   -0.39828772  -0.36948603   4.32444649
H   -1.22402193  -1.95332438   4.34699025
