72
Energy:   -416.36438734
O    3.30287265   0.19715980  -2.41259723
H    3.47575576   0.90510238  -1.77435589
C    2.60847701   0.76745224  -3.51037453
H    2.42178243  -0.04352582  -4.21956063
H    3.19387988   1.54436853  -4.02659337
H    1.63720806   1.19869177  -3.22150360
O   -3.54106104  -1.73767905   0.85640440
H   -3.51068145  -1.14629787   0.08974368
C   -3.41253829  -3.06756703   0.37952536
H   -3.44875603  -3.72042661   1.25585170
H   -2.45635569  -3.24327495  -0.13779358
H   -4.23189191  -3.35792443  -0.29658821
O   -1.13781413   2.14750772   2.37901072
H   -1.48648727   1.26663969   2.58130217
C    0.18647628   2.21253600   2.88355012
H    0.56404173   3.21106098   2.64716613
H    0.85658129   1.47453564   2.41547741
H    0.23237343   2.07995219   3.97583778
O    2.91249254   0.02139159   1.49972123
H    2.13609573  -0.48948454   1.77291868
C    3.90617855  -0.89862869   1.07701024
H    4.77352952  -0.30647566   0.77280260
H    3.58617859  -1.50351854   0.21417444
H    4.22363603  -1.58089053   1.88107297
O   -0.65016120   1.30604703  -1.63345439
H   -0.67666237   2.18523675  -1.22756475
C    0.07604812   0.45223130  -0.76388410
H    0.09622835  -0.53365019  -1.23623528
H   -0.39909980   0.34775445   0.22409180
H    1.11654547   0.78128195  -0.61600489
O    3.53204075   2.08730380  -0.32178104
H    3.35807578   1.46634026   0.40110467
C    2.77464733   3.26073144  -0.07287028
H    2.98233542   3.94928461  -0.89642683
H    3.05811783   3.75826008   0.86781408
H    1.69014445   3.07045677  -0.05222102
O   -0.96958122   3.60283102  -0.01028656
H   -1.04923102   3.17538021   0.85537215
C   -1.67609515   4.83155624   0.04976491
H   -1.57610737   5.29980194  -0.93320692
H   -1.26339259   5.52311450   0.80089812
H   -2.74937285   4.69533836   0.25542726
O   -0.58350331  -3.31160592  -1.98734004
H    0.32218805  -2.96794058  -1.99370910
C   -1.33124178  -2.57194732  -2.93935165
H   -2.34863560  -2.97193166  -2.91916386
H   -0.94179981  -2.68104161  -3.96366153
H   -1.38168004  -1.49835438  -2.69928603
O   -3.21956063   0.20813366  -1.14810264
H   -2.34990584   0.51370126  -1.44601583
C   -3.87246476   1.30508923  -0.52928244
H   -4.85026357   0.94346503  -0.19970296
H   -4.03499820   2.14766873  -1.21951428
H   -3.33125939   1.67888436   0.35397929
O   -2.04109798  -0.50028065   2.84081632
H   -2.62127674  -0.95205136   2.21016657
C   -2.53481913  -0.76318894   4.14452350
H   -1.86984115  -0.24704196   4.84229265
H   -2.52583063  -1.83569658   4.39437124
H   -3.55544721  -0.37915065   4.29817979
O    0.57802879  -1.38828333   2.20481550
H   -0.29675355  -1.12257060   2.52509018
C    0.40342150  -2.51519316   1.36094328
H    1.39830444  -2.80132119   1.00905710
H   -0.21977572  -2.29443942   0.48022178
H   -0.03330877  -3.37773042   1.88827001
O    2.04877744  -2.27975862  -1.95792709
H    2.48439598  -1.42987913  -2.12029896
C    2.89910086  -3.30105926  -2.45434310
H    2.39328209  -4.25140581  -2.26336144
H    3.87562126  -3.32586093  -1.94584518
H    3.07388983  -3.21921417  -3.53856057
