72
Energy:   -418.19376272
O   -1.23462259  -2.78402210   2.02124894
H   -1.45066452  -2.99325001   1.10039454
C   -0.21463072  -3.67768741   2.43779745
H    0.01659778  -3.42813555   3.47690402
H    0.70938010  -3.57308498   1.84784858
H   -0.53209853  -4.73160119   2.40233946
O   -0.23140060  -0.38594725   3.15876853
H   -0.63770629  -1.21226218   2.85786556
C   -1.25538626   0.59249644   3.24022467
H   -0.78046068   1.51669075   3.58051245
H   -2.04149450   0.32609643   3.96399411
H   -1.73168977   0.79155945   2.26745224
O    0.00325392   1.00950077  -3.30866975
H    0.62523875   1.67429391  -2.97759843
C   -1.30926100   1.50197410  -3.09116480
H   -1.99707923   0.74101179  -3.46975118
H   -1.50657029   2.44030292  -3.63281542
H   -1.53173573   1.66299410  -2.02469639
O    2.39525510   0.17972657   2.28529230
H    1.50947856   0.05549663   2.65730052
C    3.12168146  -1.02095179   2.49316241
H    4.11677059  -0.86365648   2.06826124
H    2.66687879  -1.88632500   1.98615050
H    3.24095663  -1.26651542   3.56005007
O   -3.73385573   0.09932388  -0.57256274
H   -3.36620820   0.93467870  -0.24784612
C   -3.98052324  -0.72865451   0.55266644
H   -4.39428835  -1.66515383   0.16893130
H   -4.71299152  -0.29200631   1.24952072
H   -3.06400032  -0.96559218   1.11535961
O   -2.59562185   2.48599444   0.39272334
H   -1.70933962   2.86461123   0.29486425
C   -3.53500592   3.52133646   0.15156313
H   -4.52776939   3.07767139   0.26587494
H   -3.46077245   3.93418047  -0.86668367
H   -3.44711707   4.35114447   0.87022268
O    3.43999825   1.25109044  -0.13551446
H    3.16391834   0.89482334   0.72196843
C    3.94159857   0.17242746  -0.90844205
H    4.24800250   0.59132497  -1.87079683
H    3.18300640  -0.60269143  -1.09950735
H    4.82037491  -0.30705216  -0.44949894
O   -1.51720032  -3.14961433  -0.77548280
H   -0.90134470  -2.45649293  -1.05606766
C   -2.53700200  -3.24250756  -1.75727156
H   -3.22185147  -4.02764063  -1.42556014
H   -2.14864780  -3.52460239  -2.74842284
H   -3.11249083  -2.30946261  -1.86223377
O   -0.00804005   3.43964415  -0.00650158
H    0.62624082   3.26685515  -0.71801758
C    0.69870736   3.38665937   1.22241440
H   -0.03055384   3.58342273   2.01295060
H    1.49043434   4.14906460   1.29085398
H    1.14934401   2.39978810   1.41159428
O    1.88029822   2.67187054  -1.96625020
H    2.49542666   2.19174051  -1.39221585
C    2.63410611   3.61397697  -2.71240227
H    1.92593405   4.14589347  -3.35352812
H    3.38897649   3.13878690  -3.35826792
H    3.13995288   4.35516797  -2.07401971
O    2.19297126  -3.01064408  -0.41493130
H    1.58539809  -2.34524512  -0.77063109
C    1.86018971  -4.25684215  -1.00550780
H    2.55405750  -4.99481984  -0.59389924
H    1.97610165  -4.25288813  -2.10064529
H    0.83536096  -4.58089024  -0.76572416
O    0.33179927  -1.09165937  -1.44566554
H    0.18255437  -0.49033041  -2.19034850
C    0.11718070  -0.35819590  -0.25046514
H    0.28943217  -1.05043444   0.57816049
H   -0.91146336   0.02594482  -0.16617608
H    0.81403144   0.48729356  -0.13945188
