72
Energy:   -416.57399766
O    0.88620012   1.32603307   2.07565044
H    1.19513298   0.42866388   1.88145387
C    1.45727745   2.19594140   1.11145961
H    1.09899492   3.20222975   1.34491750
H    1.14710166   1.95316987   0.08304808
H    2.55784016   2.20821957   1.14871953
O    0.15978528  -2.45075235   3.69786681
H   -0.74743709  -2.58926315   3.38772877
C    0.14213608  -1.36268245   4.60799107
H    1.17168767  -1.22034568   4.94747443
H   -0.48491916  -1.55786252   5.49200679
H   -0.19655629  -0.42405515   4.14211167
O    1.09255495  -0.64342621  -3.14306958
H    1.45804709   0.25238311  -3.09444419
C    2.17516146  -1.55558427  -3.05106633
H    1.74574377  -2.55952761  -3.10748807
H    2.72244172  -1.47137931  -2.09913609
H    2.89537421  -1.44543946  -3.87686234
O   -2.37149390  -2.75756535   2.51988495
H   -2.60051614  -2.56792903   1.59792500
C   -2.76953738  -4.09076301   2.79679496
H   -2.50427526  -4.28776808   3.83905703
H   -2.24962336  -4.82934588   2.16674569
H   -3.85471513  -4.24222676   2.68622684
O   -1.58351524   2.65733920  -0.96852062
H   -1.84014632   2.31464921  -0.09953999
C   -1.38116329   1.54607829  -1.82682515
H   -1.09275125   1.95001537  -2.80106256
H   -2.29234331   0.94288785  -1.96353503
H   -0.57381892   0.88228277  -1.47991319
O   -1.88000957   1.55145932   1.61656188
H   -0.94145785   1.53581254   1.85593423
C   -2.60806462   0.98051709   2.69196626
H   -3.66300895   1.00604289   2.40573891
H   -2.49503479   1.54644226   3.62990565
H   -2.33155604  -0.06813870   2.88338562
O   -1.35437179  -1.82204368  -2.46878908
H   -0.50262501  -1.43996048  -2.72756145
C   -1.98486729  -2.30416561  -3.64461544
H   -2.94265322  -2.73110336  -3.33501009
H   -1.40424865  -3.09509817  -4.14470044
H   -2.18729023  -1.50635075  -4.37625315
O    0.67371064   4.16472225  -1.68777172
H   -0.15063245   3.72781226  -1.42702011
C    0.36714950   5.51608562  -1.99169786
H    1.30660191   5.99339375  -2.28340201
H   -0.04048687   6.06428493  -1.12793433
H   -0.34002465   5.61347358  -2.83026666
O   -2.93620055  -2.19568019  -0.17397324
H   -2.40446959  -2.10812605  -0.97896997
C   -3.83537963  -1.09925966  -0.13069775
H   -4.42642569  -1.21352408   0.78204175
H   -4.52837890  -1.08360547  -0.98643387
H   -3.31921011  -0.12758971  -0.08375240
O    3.77480848  -0.38020120   0.16610834
H    2.98978173  -0.79638909   0.55204086
C    4.73358886  -0.22761681   1.20051250
H    5.61120637   0.24250190   0.74855996
H    5.04733607  -1.18975653   1.63482480
H    4.37974009   0.42272445   2.01575764
O    1.45035923  -1.38952864   1.43534246
H    1.13712191  -1.88336842   2.20762992
C    0.45813967  -1.49315608   0.42673179
H    0.82703976  -0.93144721  -0.43575361
H   -0.50561335  -1.05626193   0.73182349
H    0.28301969  -2.53253981   0.10768354
O    2.05719331   1.98061113  -2.81114326
H    1.64811646   2.80064720  -2.49710465
C    3.39183824   1.95405433  -2.33098557
H    3.83779523   1.02402395  -2.69382308
H    3.44814880   1.95331694  -1.23116472
H    3.99664643   2.79300820  -2.70932508
