72
Energy:   -417.76682385
O    1.37690654   0.70224279  -0.62659070
H    1.27606955   1.64872319  -0.44650730
C    0.34400588   0.01984184   0.06621443
H    0.47247586  -1.04471975  -0.14753612
H   -0.66174609   0.31663268  -0.27017151
H    0.40038557   0.15819205   1.15729549
O   -0.70961881   1.70017266   3.17496155
H   -1.02250050   0.78364718   3.19753058
C   -1.63138781   2.45071476   2.40064751
H   -1.26385039   3.48036252   2.38558353
H   -2.64436012   2.45610950   2.83266064
H   -1.69937438   2.09724533   1.35987159
O    1.45432801  -0.58318335  -3.14423381
H    1.40151847  -0.15255031  -2.27809894
C    2.80609433  -0.95718479  -3.35727025
H    2.84760643  -1.44067801  -4.33706423
H    3.17206842  -1.67502966  -2.60657787
H    3.48881244  -0.09323867  -3.37371517
O    1.77527655   2.83238421   2.52865208
H    0.96124710   2.47141344   2.91006976
C    2.79425878   1.85837773   2.68840307
H    3.70396236   2.28118700   2.25348133
H    2.56952926   0.91756533   2.16195648
H    2.99764440   1.62513855   3.74529053
O   -2.43414443  -1.57575405  -1.67429079
H   -2.81006362  -0.75231414  -1.32924768
C   -2.02134789  -1.33403620  -3.00984509
H   -1.60045980  -2.27158105  -3.38313865
H   -1.24288278  -0.55829589  -3.08053008
H   -2.85685384  -1.04887453  -3.66816869
O   -3.25133138   0.94464765  -0.70503156
H   -2.65081361   1.66889871  -0.93581733
C   -4.51178200   1.51439873  -0.39010025
H   -5.17595311   0.68492485  -0.13254439
H   -4.95692389   2.05739108  -1.23850188
H   -4.46641087   2.19622147   0.47351804
O    1.10913676   3.48333954  -0.08807225
H    1.36031383   3.41846367   0.84526824
C    2.17285518   4.12112140  -0.77674575
H    1.87339360   4.18604452  -1.82631373
H    3.11448888   3.55241985  -0.72495930
H    2.36341426   5.14270783  -0.41229309
O    0.29188522  -3.02893228   2.01564373
H   -0.00676682  -3.26384107   1.12454997
C    0.28315949  -4.21205433   2.79838241
H    0.62212126  -3.92942466   3.79873764
H    0.96750402  -4.98313031   2.41122387
H   -0.72148468  -4.65363605   2.89043138
O   -1.45659522  -1.00210754   2.92027804
H   -0.82859589  -1.71317644   2.72426495
C   -2.61270873  -1.21809878   2.12700437
H   -3.30948026  -0.40839748   2.36019620
H   -3.11143291  -2.17347870   2.35350103
H   -2.39971916  -1.18477377   1.04704964
O    3.70957491  -0.78080800   0.07168366
H    2.90993782  -0.28560974  -0.16022684
C    3.31160797  -1.90697889   0.83712158
H    4.22427407  -2.45348539   1.08981989
H    2.64943126  -2.58766958   0.27948412
H    2.81022473  -1.62682486   1.77675230
O   -0.67135506  -3.48131251  -0.56015355
H   -1.32233621  -2.90684297  -0.98984129
C    0.31710125  -3.80789390  -1.52391310
H    1.04223002  -4.45522596  -1.02327882
H    0.85278900  -2.92245159  -1.90048697
H   -0.09388688  -4.35767418  -2.38507960
O   -1.34097644   2.88761709  -1.37851601
H   -0.54140282   3.22116564  -0.94509857
C   -1.00087749   2.56078083  -2.71644147
H   -1.91268370   2.18679503  -3.18996999
H   -0.23500169   1.77199901  -2.77996187
H   -0.65052419   3.43238170  -3.29119516
