72
Energy:   -416.59591768
O    1.41348674   2.81921859  -1.75158737
H    0.70696685   2.53365591  -2.34967339
C    2.57861128   2.07817634  -2.07697171
H    3.36434754   2.41225772  -1.39396851
H    2.92290922   2.25791874  -3.10747106
H    2.44506950   0.99373286  -1.93939899
O    0.37450992   3.10116573   0.85715816
H    0.79479564   3.09615613  -0.01562938
C   -0.98961553   3.44596637   0.67602823
H   -1.44788845   3.44695569   1.66873673
H   -1.53221498   2.72016650   0.05026652
H   -1.12045949   4.44813263   0.23862683
O   -1.43569694  -3.28828397  -0.66350855
H   -0.65329831  -2.72320345  -0.74693317
C   -1.54410725  -3.67520049   0.69703420
H   -2.43032072  -4.31105854   0.77316189
H   -1.68052620  -2.81705219   1.37360548
H   -0.67579394  -4.25681164   1.04421975
O   -0.45774907  -1.12286224  -3.55095340
H   -0.04001055  -1.25123261  -2.68640794
C   -0.65687723  -2.40379691  -4.12722427
H   -1.12812155  -2.24071130  -5.10026953
H   -1.32496486  -3.04098397  -3.52686695
H    0.28661975  -2.94743860  -4.29167638
O   -0.68292646   1.68295732  -3.25930313
H   -0.65024123   0.75078351  -3.52085033
C   -2.00462306   1.96240030  -2.82621712
H   -2.02371203   3.01621626  -2.53536881
H   -2.30173392   1.36164567  -1.95237712
H   -2.75274741   1.81389591  -3.62059344
O    3.15512816   0.70675849   2.18015258
H    2.27789916   0.85994921   2.56149908
C    3.69304449   1.96833128   1.81736632
H    4.68100237   1.77734873   1.38963966
H    3.81882322   2.64100332   2.68019271
H    3.08673385   2.48670113   1.05811838
O    3.28512581  -0.97457690  -0.04963987
H    3.34061882  -0.38584667   0.71765441
C    4.43145204  -1.81019053  -0.03481363
H    4.35288390  -2.46677194  -0.90556796
H    4.48541774  -2.44212299   0.86547877
H    5.37195150  -1.24339944  -0.11839564
O    0.66460607  -1.37973861  -0.96409695
H    1.59244165  -1.29794413  -0.69791269
C   -0.05417075  -0.32192510  -0.35015539
H   -1.09708316  -0.42912912  -0.66052004
H    0.29656876   0.67197704  -0.66940085
H   -0.01903093  -0.36607550   0.74965972
O   -0.02970367  -1.54532544   3.21979666
H    0.11557329  -0.58977778   3.15463105
C    1.19776557  -2.18894417   2.91712859
H    1.01622610  -3.26432126   2.99518464
H    2.00107940  -1.92621505   3.62312975
H    1.54934065  -1.97534834   1.89558607
O    0.46905102   1.24248344   2.93468106
H    0.34352811   1.91056014   2.24450659
C    0.11610910   1.83350423   4.17510848
H    0.26332947   1.06747477   4.94127440
H   -0.93728457   2.15280124   4.20958343
H    0.74960780   2.69748895   4.43003426
O   -3.26227704   0.78060029   0.60859511
H   -3.51226141   0.01043112   0.07683338
C   -3.02536315   0.33067812   1.93297256
H   -2.74496285   1.21061804   2.51826446
H   -2.20079490  -0.39675487   1.99384774
H   -3.91856833  -0.11698314   2.39618010
O   -3.64838139  -1.54257402  -0.94228660
H   -2.98131050  -2.24296446  -0.88850077
C   -3.98710527  -1.37486126  -2.30964623
H   -4.73933514  -0.58249958  -2.35205370
H   -4.42273165  -2.28329493  -2.75434305
H   -3.12863064  -1.06389057  -2.92535384
