72
Energy:   -417.36599367
O   -1.68626269   1.30935690   2.45386566
H   -1.68182644   0.34086095   2.47433964
C   -0.67253863   1.76318305   3.33644094
H   -0.69137370   2.85583496   3.30119545
H    0.33311819   1.42923838   3.03658655
H   -0.84557369   1.45220981   4.37861743
O    2.52290308  -3.11550782   0.73919151
H    2.74105547  -2.52228393   1.47330200
C    3.42553120  -2.83967459  -0.31991768
H    3.16573182  -3.51648671  -1.13840094
H    4.47517228  -3.02554066  -0.04335895
H    3.34188032  -1.80645180  -0.69171133
O   -0.25901625  -3.39112853   0.88639438
H    0.70531656  -3.35645456   0.80105258
C   -0.67460576  -4.70334441   0.54301613
H   -1.76305487  -4.72481884   0.64451784
H   -0.25421141  -5.47109099   1.21130582
H   -0.42321760  -4.97100412  -0.49522257
O    1.40536899   1.46942680  -3.10913074
H    1.15966617   0.53682701  -3.20029552
C    0.21303467   2.23609356  -3.16476100
H    0.50803641   3.28375929  -3.06057037
H   -0.48577325   1.99539644  -2.34836054
H   -0.31965817   2.12503010  -4.12219537
O   -1.77881263   2.98516211   0.18840722
H   -1.76575519   2.46791868   1.00737731
C   -0.63182546   3.81999992   0.18825560
H   -0.66225629   4.39548480  -0.74092485
H    0.30970637   3.24903790   0.20550390
H   -0.62285113   4.53043222   1.02967271
O    2.74926083   2.76793259  -1.01411991
H    2.32080821   2.39817040  -1.80033079
C    4.14319848   2.82670794  -1.27105774
H    4.61033145   3.24543044  -0.37554477
H    4.39149472   3.47941991  -2.12258190
H    4.58413110   1.83426098  -1.45382750
O   -1.62578459  -1.50057962   2.43235508
H   -1.18046670  -2.18767140   1.91464848
C   -2.82381771  -2.05865794   2.94791208
H   -3.31275283  -1.27150296   3.52826946
H   -2.64091237  -2.91325910   3.61797165
H   -3.51825952  -2.38037200   2.15606111
O    0.34216992  -1.16009510  -3.07160738
H   -0.56028997  -0.95260662  -2.78711141
C    0.59072598  -2.52075856  -2.75641124
H    1.61124980  -2.73764429  -3.08348448
H   -0.08957384  -3.20988368  -3.28088819
H    0.52769818  -2.72539289  -1.67616608
O   -2.17222904  -0.36738569  -2.12761756
H   -2.61393227   0.48678049  -2.24475711
C   -2.49292405  -0.84345960  -0.83029643
H   -1.98741261  -1.80609297  -0.71505588
H   -3.57325684  -1.00649688  -0.69217605
H   -2.13770157  -0.17356412  -0.03165110
O    1.96061845   0.88499645   0.94082574
H    2.28603683   1.59053374   0.36225571
C    0.95479166   0.17772301   0.23328738
H    0.59927459  -0.61313206   0.89935125
H    1.33424058  -0.29515676  -0.68604965
H    0.09506366   0.81277097  -0.03196568
O    2.86062617  -1.12446234   2.69215134
H    2.59743047  -0.35429828   2.16679564
C    1.93361331  -1.25561792   3.75797457
H    2.24484967  -2.12764070   4.33951856
H    0.90416138  -1.42888001   3.40728054
H    1.92992519  -0.38186833   4.42829193
O   -3.18304429   2.27126348  -2.11660321
H   -2.73102203   2.59934066  -1.32510809
C   -4.27507839   3.13795141  -2.37899097
H   -4.77306328   2.75392351  -3.27342868
H   -3.95744720   4.17254284  -2.58272692
H   -5.01063991   3.15526510  -1.55958459
