72
Energy:   -416.55447848
O   -3.42211603  -1.89315798  -1.51574827
H   -2.65856682  -2.39216682  -1.18954885
C   -4.45349965  -2.82376882  -1.80340271
H   -5.30576079  -2.24493591  -2.16958382
H   -4.77931508  -3.38578347  -0.91415518
H   -4.16940393  -3.54511152  -2.58553547
O   -0.41290333  -0.55245615   3.75553053
H   -0.42774167   0.41517259   3.71196780
C   -1.20154362  -0.94540592   4.86736269
H   -1.17397112  -2.03790274   4.90165029
H   -2.25350561  -0.63322599   4.77410496
H   -0.80927169  -0.56385589   5.82304027
O    2.36584701   1.89541523   2.58875150
H    2.83683387   1.62880135   1.78531407
C    2.88049531   1.12692581   3.66443496
H    2.33911876   1.43988206   4.56134913
H    3.95435062   1.30088271   3.83575660
H    2.72087113   0.04572017   3.52918778
O    2.67968770  -0.53827275  -1.87766110
H    1.97935934  -0.32035191  -2.51049122
C    3.50876231  -1.52224887  -2.47512245
H    4.29204914  -1.75609947  -1.74899516
H    3.99366918  -1.16658426  -3.39769784
H    2.96663183  -2.45306998  -2.70412887
O   -3.22224017   0.46220412   0.05990336
H   -3.43451314  -0.31202354  -0.48225437
C   -2.86257219  -0.00212711   1.35124732
H   -2.62662958   0.88261364   1.94878401
H   -1.97336058  -0.65165187   1.33718914
H   -3.68061508  -0.54372115   1.85150632
O   -0.98490814   2.09826533  -0.61180183
H   -1.79366122   1.62098061  -0.37401828
C    0.11851948   1.29845370  -0.21774267
H    1.02108691   1.85085815  -0.49289091
H    0.14366500   0.32525156  -0.73254616
H    0.14653463   1.11791048   0.86825762
O   -2.17590784  -0.33482674  -3.54070609
H   -2.64717652  -0.88321413  -2.89603534
C   -2.80741295   0.93519139  -3.56879558
H   -2.26412564   1.54008644  -4.29984009
H   -2.76446907   1.45302256  -2.59782492
H   -3.86032752   0.87961038  -3.88669335
O    3.65281784   1.04047255   0.22773757
H    3.36938191   0.46076322  -0.49477503
C    4.13223530   2.24451561  -0.34930053
H    4.44728720   2.88584597   0.47830013
H    3.35789878   2.78008617  -0.92056621
H    5.00092421   2.08446456  -1.00697869
O    0.61842210   0.13193392  -3.65924731
H   -0.33636637  -0.03011112  -3.68256385
C    0.82445368   1.52053661  -3.86386240
H    1.90492714   1.68548298  -3.83462221
H    0.36328870   2.13918012  -3.07812428
H    0.45268588   1.86612515  -4.84117228
O    0.37385768  -2.19409379   1.61973230
H    0.11606943  -1.69495010   2.40892434
C    1.71924018  -1.85928149   1.31909891
H    1.99340279  -2.43015561   0.42779492
H    2.41607947  -2.13217672   2.12701013
H    1.85093406  -0.78951224   1.09320556
O   -0.28530244   2.23124025   3.47391312
H    0.63098457   2.26163461   3.16099530
C   -0.97254129   3.33213473   2.90096647
H   -2.00278037   3.28266143   3.26379568
H   -0.99586345   3.29290445   1.80065088
H   -0.54969090   4.30240436   3.20518963
O   -1.06776164  -3.07160957  -0.62735380
H   -0.56192144  -2.85844784   0.17083856
C   -0.21833933  -2.86186645  -1.74405579
H   -0.80381755  -3.10656994  -2.63446056
H    0.67031064  -3.51216926  -1.73046134
H    0.11721999  -1.81672785  -1.83272709
