72
Energy:   -417.27840392
O    2.97283658  -2.08899803  -1.98291126
H    2.11576324  -2.26405413  -2.39908902
C    3.17591813  -3.07581414  -0.98416925
H    4.14556668  -2.86376450  -0.52558245
H    3.20884697  -4.09679109  -1.39562897
H    2.41011320  -3.04439716  -0.19338919
O   -2.08726793   1.79695488  -1.08609070
H   -2.51237592   1.76083638  -0.21637699
C   -1.14684776   2.85881698  -1.06174801
H   -0.67733490   2.88533888  -2.04883437
H   -0.35519036   2.70860719  -0.31108636
H   -1.61618424   3.83843921  -0.88052747
O   -1.52352576  -0.24003572  -2.91178945
H   -1.73659807   0.49495981  -2.31781551
C   -2.49471495  -0.25327112  -3.94578663
H   -2.23974585  -1.08699804  -4.60561644
H   -2.49005011   0.67041576  -4.54541828
H   -3.51604089  -0.41703642  -3.56782952
O    2.59180486  -0.64109299   2.62358451
H    2.30379310   0.26417771   2.81320904
C    3.73633817  -0.56274686   1.78905520
H    4.04752616  -1.59091052   1.58527415
H    4.57815082  -0.04020136   2.26975780
H    3.52731998  -0.07201647   0.82558625
O   -2.09643252  -3.00767576   0.72252946
H   -1.31000725  -2.47007709   0.89844487
C   -3.07860864  -2.15913911   0.14994810
H   -3.95749434  -2.78063762  -0.04184535
H   -2.75561445  -1.72002623  -0.80693849
H   -3.37914347  -1.34146349   0.82364145
O   -3.13785958   1.51739016   1.49437807
H   -2.74629285   0.89181943   2.12188109
C   -4.42363016   1.86731694   1.98108029
H   -4.85038603   2.57230925   1.26250498
H   -4.38597738   2.36251861   2.96400191
H   -5.10084450   1.00193507   2.05369068
O    2.32135181   2.72518799   0.02328242
H    2.51819912   2.06089114  -0.65375827
C    3.44386848   3.58728114   0.11964362
H    3.20524752   4.32923799   0.88648472
H    3.65104995   4.12234451  -0.82033530
H    4.35993256   3.05974583   0.42836747
O    1.64269910   2.01529245   2.65417126
H    1.84622912   2.37928389   1.77980919
C    0.29298830   2.33625230   2.95048076
H    0.08044460   1.91890706   3.93847536
H   -0.41646865   1.89437583   2.23340798
H    0.11348059   3.42196517   2.99269300
O    0.17670996  -1.33574082   1.33916315
H    1.03660290  -1.29908263   1.78375688
C    0.25835056  -0.52669408   0.17670370
H   -0.71837351  -0.57930067  -0.31189413
H    1.01694366  -0.88361695  -0.53738307
H    0.46814008   0.52946678   0.40754979
O    2.86640045   0.73319308  -1.86632789
H    3.05274221  -0.21665044  -1.90502298
C    2.04400015   1.05604977  -2.97626260
H    1.84377851   2.12932226  -2.91724841
H    1.07825205   0.52711048  -2.95806486
H    2.53344603   0.85265982  -3.94158773
O    0.35585350  -2.32804005  -2.98580000
H   -0.30920252  -1.62380108  -2.99888607
C   -0.26796077  -3.49992825  -2.48573242
H    0.49508798  -4.28298455  -2.47769370
H   -1.10115090  -3.84166838  -3.11959772
H   -0.64166923  -3.37686038  -1.45715397
O   -1.84351067  -0.37410630   3.08129784
H   -1.11485375  -0.71840294   2.54376442
C   -2.26984501  -1.41499640   3.94577492
H   -3.09075600  -1.01019454   4.54387677
H   -1.47727786  -1.74726449   4.63440584
H   -2.64654028  -2.29392295   3.39954592
