72
Energy:   -419.69589210
O    0.52931177   0.34272718  -2.11139702
H    1.43702612   0.07795531  -2.32204792
C    0.26761996  -0.04513703  -0.77213882
H   -0.75868660   0.26054711  -0.55137366
H    0.93426023   0.44920586  -0.04826508
H    0.33908847  -1.13391744  -0.62305226
O    0.61401236   1.06318705   2.60483555
H    0.32784108   0.13770685   2.60879418
C   -0.53596252   1.86843776   2.40072077
H   -0.19562303   2.90750047   2.39900843
H   -1.28230276   1.75499285   3.20252113
H   -1.02896158   1.66910172   1.43635860
O    3.23641826  -0.47806285  -2.27425484
H    3.34165730  -1.06040634  -1.50729716
C    3.90421063   0.73967193  -1.98492953
H    3.77571713   1.38380454  -2.85903924
H    4.98403516   0.60307788  -1.81730380
H    3.48016843   1.26020608  -1.11199783
O    2.84750904   2.20144492   1.32943186
H    2.07391391   1.83991371   1.78689118
C    3.76357049   2.64504071   2.31765652
H    4.62879959   3.04918524   1.78518023
H    4.11416099   1.82938704   2.96924896
H    3.34997473   3.44389670   2.95290843
O   -2.97199996  -1.56060457  -1.42423467
H   -3.17713674  -0.89721649  -0.74876562
C   -2.91203609  -0.89593744  -2.67609557
H   -2.68010955  -1.65765002  -3.42542142
H   -2.12244880  -0.12914937  -2.71304542
H   -3.86775799  -0.42420896  -2.95330527
O   -3.45058008   0.48101706   0.46344031
H   -3.24617149   1.40854911   0.27284991
C   -4.65542148   0.45076453   1.21175560
H   -4.87093435  -0.60117772   1.41780630
H   -5.50976021   0.87243152   0.65941547
H   -4.57080251   0.97701806   2.17543302
O   -0.43524619   2.98901212  -1.78972178
H   -0.12060021   2.09716652  -1.99956125
C    0.63260765   3.68738506  -1.16964341
H    0.26107957   4.68974194  -0.94000726
H    1.51090754   3.79089255  -1.82588486
H    0.95643303   3.21907300  -0.22698851
O    0.97605150  -3.70425815   0.67230908
H    0.32477238  -3.71963942  -0.04464434
C    1.28217517  -5.04901488   1.00465136
H    2.01693194  -5.01325486   1.81356354
H    1.72680135  -5.60418571   0.16389561
H    0.40463376  -5.60831741   1.36503878
O   -0.08509174  -1.66102016   2.34028019
H    0.34609188  -2.39976369   1.88556934
C   -1.48318265  -1.78615775   2.13481449
H   -1.95335759  -0.94629449   2.65351520
H   -1.89277899  -2.71862562   2.55375584
H   -1.76334360  -1.73055931   1.07123751
O    3.20054231  -2.05694668   0.07178321
H    2.50446206  -2.69158129   0.29791254
C    3.41772298  -1.23379585   1.20659114
H    4.20452092  -0.52496283   0.93458021
H    3.75962629  -1.80265409   2.08538564
H    2.52327990  -0.65811168   1.49178695
O   -0.90796389  -3.50027718  -1.36641129
H   -1.66326211  -2.89805222  -1.43902657
C   -0.16895459  -3.41141636  -2.57409617
H    0.67792586  -4.09589524  -2.47526614
H    0.22849427  -2.40061937  -2.75603350
H   -0.75483138  -3.71812959  -3.45469410
O   -2.73164331   3.10008806  -0.20450562
H   -1.94095399   3.13391568  -0.76315521
C   -3.60022292   4.14013802  -0.62450483
H   -4.48549312   4.08759782   0.01504299
H   -3.92697184   4.02514497  -1.66987035
H   -3.15376212   5.14007518  -0.50798977
