72
Energy:   -417.71268040
O    2.28355099   2.25488531  -1.33565402
H    1.57322658   2.67941929  -0.83203373
C    3.33665571   1.96201727  -0.43136837
H    4.12823364   1.48433926  -1.01507489
H    3.03184732   1.26514589   0.36502316
H    3.75673739   2.86486084   0.03893175
O   -0.61817874   2.20960621   2.70143092
H   -1.37940876   1.67419423   2.97029174
C    0.52643395   1.69200184   3.36058285
H    1.37452220   2.30651375   3.04656591
H    0.74054448   0.64776402   3.08399403
H    0.44895613   1.75203660   4.45747407
O   -0.63264153   0.00794837  -3.16903984
H    0.32656934  -0.04963692  -3.29160294
C   -0.99001785   1.38026101  -3.20871299
H   -2.07344831   1.42691183  -3.06911588
H   -0.74931692   1.85466275  -4.17296575
H   -0.51676101   1.96632494  -2.40538592
O    3.73202549  -1.43619627   0.21672520
H    2.81016416  -1.33728349   0.49745857
C    4.16602146  -2.72778176   0.61167858
H    5.20603291  -2.82242078   0.28778840
H    3.58595935  -3.53481386   0.13733222
H    4.13387122  -2.87194372   1.70299019
O   -2.76149276  -1.20460614  -1.77530359
H   -2.05365348  -0.84819877  -2.33240378
C   -2.70901007  -2.61941358  -1.86529938
H   -3.51282096  -3.00452171  -1.23200247
H   -1.75697643  -3.03383187  -1.49832969
H   -2.87592281  -2.98681794  -2.88996104
O   -2.84038106   0.49189298   3.14016016
H   -3.14738385   0.47045989   2.22162154
C   -3.98589867   0.53283678   3.97601110
H   -3.62198498   0.55659677   5.00678144
H   -4.62810254  -0.35437317   3.86107617
H   -4.60123795   1.43101282   3.81043721
O    0.19836567   3.30356891   0.24699727
H   -0.08695103   2.97320497   1.11179628
C    0.09435773   4.71818656   0.27093535
H    0.41948682   5.07374906  -0.71056941
H    0.74209242   5.17936569   1.03286113
H   -0.93751563   5.06598474   0.43540763
O   -1.04984987  -1.69139237   2.87122302
H   -1.67249189  -0.99394954   3.12482445
C   -1.77180134  -2.66637661   2.13588257
H   -1.05553828  -3.44440302   1.85816450
H   -2.21193322  -2.26170086   1.21105891
H   -2.57424645  -3.13602782   2.72604096
O    1.00346710  -1.29838686   0.98536269
H    0.37651495  -1.44605438   1.70892926
C    0.41349917  -0.37255788   0.08685709
H    1.13285544  -0.21762322  -0.72184991
H    0.21026806   0.60348953   0.55462401
H   -0.52256742  -0.74727198  -0.35602665
O    2.18169188   0.14837158  -3.20905058
H    2.31345090   0.89397330  -2.60478168
C    3.42981151  -0.50876346  -3.36039351
H    3.26332799  -1.34575724  -4.04392102
H    3.81472842  -0.91421132  -2.41158987
H    4.20247475   0.14181604  -3.79915902
O    0.74654781  -3.60168077  -0.71461070
H    0.87516535  -2.83319733  -0.13901188
C    1.24029227  -3.26350077  -2.00083947
H    1.08764378  -4.14000675  -2.63638720
H    2.31631454  -3.02914755  -1.99518574
H    0.70241204  -2.41579404  -2.45344911
O   -3.42631425   0.41168274   0.42604490
H   -3.30943822  -0.19104362  -0.32327760
C   -3.03855414   1.70813819   0.00015858
H   -3.17643803   2.37432491   0.85611915
H   -3.65660263   2.08579768  -0.82939956
H   -1.98123986   1.75734082  -0.30388571
