72
Energy:   -417.33327240
O    1.51894046  -0.23253619  -1.21806600
H    2.10280953  -0.80887627  -0.70294242
C    0.38557196   0.05935069  -0.41631064
H   -0.26144018   0.70927737  -1.01167255
H    0.64657979   0.59386445   0.51048345
H   -0.18886919  -0.84112368  -0.14809318
O    0.71346338  -0.15525490   3.25381303
H    0.79825793  -1.08886172   3.00965844
C   -0.66860202   0.16476433   3.25790092
H   -0.74599097   1.21965370   3.53485681
H   -1.23924102  -0.42396369   3.99312047
H   -1.13786216   0.03587171   2.26999457
O    0.56798098   0.74287701  -3.67058021
H    0.95831522   0.47073887  -2.82677734
C    1.37089424   0.20560017  -4.70942460
H    0.91709935   0.52167615  -5.65263793
H    1.40140095  -0.89517154  -4.69724591
H    2.40548808   0.58217558  -4.68526099
O    2.02982828   2.17850504   2.40987695
H    1.59562378   1.38005396   2.74508672
C    2.19708663   3.06828504   3.50205366
H    2.68744674   3.96207289   3.10686327
H    2.83596205   2.65132232   4.29625616
H    1.23950526   3.37471240   3.95140600
O   -1.71120214  -0.93233222  -3.47817081
H   -1.01077987  -0.28299994  -3.64003341
C   -2.74809586  -0.27808920  -2.76448231
H   -3.52865978  -1.02371250  -2.59055399
H   -3.19261580   0.55602122  -3.32967180
H   -2.41599228   0.10306372  -1.78611275
O   -2.95335929   1.14009901   0.65255588
H   -2.45855171   1.84225753   0.20471424
C   -4.11409815   1.72607650   1.21987366
H   -4.65969076   0.92144733   1.72025932
H   -4.77937723   2.17043609   0.46308728
H   -3.87799913   2.49661838   1.97040668
O    1.16830413   3.60070704   0.13826556
H    1.52180712   3.15016864   0.91959396
C    2.09669831   3.42075272  -0.91920051
H    1.68298281   3.93437214  -1.79127836
H    2.24032571   2.36131717  -1.18329294
H    3.08203729   3.86076467  -0.69948726
O    0.85166337  -2.80255505   2.26064761
H    0.02904210  -2.99299295   1.78583088
C    1.21656743  -3.97219310   2.97571800
H    2.14492433  -3.74020255   3.50469726
H    1.40595294  -4.83273467   2.31512837
H    0.46260323  -4.26666289   3.72244610
O   -1.46507089  -3.21077801   0.78717311
H   -1.39304532  -3.33216385  -0.17121151
C   -2.64058334  -2.45741915   1.03847907
H   -2.70629714  -2.32995483   2.12241622
H   -3.55452483  -2.96946929   0.69893094
H   -2.61122650  -1.45734297   0.57830177
O    2.93843783  -1.94696257   0.53664901
H    2.29063114  -2.30873541   1.15945731
C    3.74895767  -1.02397346   1.24635491
H    4.47290737  -0.62608172   0.53006992
H    4.30750912  -1.49460977   2.07055093
H    3.17310314  -0.17883866   1.65490854
O   -1.13814718  -3.26134530  -1.99074096
H   -1.38014388  -2.52316987  -2.56949645
C    0.22537376  -3.56907068  -2.23291758
H    0.48137272  -4.40239597  -1.57297918
H    0.89873333  -2.72948577  -1.99954793
H    0.41192147  -3.88592728  -3.27098269
O   -1.48691852   3.13775126  -0.65234901
H   -0.58636838   3.37993879  -0.39009356
C   -1.60023550   3.35119587  -2.05025259
H   -2.62043385   3.07351004  -2.32876850
H   -0.90524797   2.72697490  -2.63344883
H   -1.44344008   4.40371290  -2.33380227
