72
Energy:   -415.98631074
O    3.51580451  -0.00014912   0.47577118
H    3.01003929   0.26120051  -0.30801526
C    3.88099596  -1.36187259   0.31804296
H    4.44985218  -1.63985337   1.20945448
H    4.52103856  -1.53130592  -0.56196565
H    3.00887131  -2.03058453   0.24733047
O   -1.87342027   1.27537827   3.75186981
H   -0.98693117   1.33587350   4.13774630
C   -2.57590862   0.25621563   4.44494369
H   -3.57213213   0.20145517   3.99770191
H   -2.69482884   0.47567964   5.51754373
H   -2.10116208  -0.73222364   4.34305722
O   -1.76037575   1.54541624  -3.47143556
H   -2.01515711   0.62268348  -3.32286240
C   -1.34313786   1.66461435  -4.82207916
H   -1.05975012   2.70990046  -4.97225750
H   -2.14429670   1.42192377  -5.53763707
H   -0.46836466   1.03706429  -5.05387671
O    0.79406104   1.31129406   4.61449743
H    1.36776795   1.48452867   3.85339730
C    1.42217089   1.86195845   5.76113622
H    0.76270600   1.65791361   6.60904951
H    1.55813512   2.95241699   5.68908603
H    2.40082314   1.40291831   5.97161014
O   -2.22026155  -1.20041814  -3.03999340
H   -1.59422336  -1.92865437  -3.16716040
C   -2.92475778  -1.44424823  -1.83302790
H   -3.62545301  -0.61469029  -1.70518027
H   -2.26356842  -1.47137859  -0.95276095
H   -3.50487508  -2.37991247  -1.86084305
O   -2.04050352   0.57622644   1.04911701
H   -2.08227327   0.88718516   1.96562300
C   -2.31201704   1.68425403   0.20585605
H   -2.26092951   1.31636246  -0.82250724
H   -1.57330194   2.49354121   0.31599961
H   -3.31629430   2.10603792   0.36803766
O    2.30063213   1.79827509   2.30552050
H    2.85190239   1.22887557   1.74846703
C    1.35395625   2.43724195   1.46405755
H    0.74138808   3.07456857   2.10753266
H    0.68681973   1.72356379   0.95575678
H    1.82595883   3.07571875   0.70094663
O    0.65016892  -3.58767325  -0.47042184
H    0.27102508  -2.98045506   0.18223372
C    0.34061491  -4.90963989  -0.05918675
H    0.77499639  -5.58057558  -0.80527202
H   -0.74338525  -5.09968078  -0.01911893
H    0.77420537  -5.16258743   0.92101434
O   -0.51523642  -1.77886037   1.32176946
H   -1.07290728  -0.99796688   1.18898451
C    0.52531134  -1.41768525   2.21583134
H    1.14386341  -2.30858443   2.35431313
H    0.14895216  -1.10658956   3.20292332
H    1.16676352  -0.61492605   1.81973275
O    1.79708617   0.84557262  -1.58131166
H    1.33070894   1.68099310  -1.73293020
C    0.84284385  -0.20100947  -1.66268296
H    1.38497550  -1.13460700  -1.48955258
H    0.36322065  -0.26319069  -2.65206278
H    0.05402661  -0.11759575  -0.89875440
O   -0.21691984  -3.18507238  -3.11287414
H    0.12712651  -3.40167949  -2.23359219
C    0.87367444  -3.20945192  -4.01981599
H    0.46847984  -2.96336310  -5.00507881
H    1.35082613  -4.19986054  -4.08457981
H    1.64805136  -2.46609430  -3.77377297
O    0.06210716   3.05853485  -1.95783230
H   -0.61300872   2.61287554  -2.49077657
C   -0.22583480   4.44756888  -1.97224268
H    0.54405473   4.93429088  -1.36738154
H   -1.20669224   4.68312715  -1.53041881
H   -0.18809769   4.87919108  -2.98469294
