72
Energy:   -416.11362869
O    1.67309015  -0.67637776   0.32399733
H    1.57810115  -1.64028429   0.30712807
C    0.38101721  -0.11966065   0.50606149
H    0.50638084   0.96638336   0.52272212
H   -0.08315176  -0.42435683   1.45710551
H   -0.30973546  -0.37103251  -0.31396915
O    2.44898142   0.37604813  -2.17374351
H    2.23317778  -0.02354887  -1.31807167
C    2.91595108  -0.65751115  -3.02593383
H    3.15443859  -0.19006674  -3.98515467
H    2.15802985  -1.43620803  -3.20471837
H    3.82897848  -1.14201050  -2.64590924
O    3.01651902   1.48262987   1.60307950
H    2.65789135   0.68998248   1.17702836
C    3.52810690   2.32546659   0.58306094
H    3.92803143   3.21330886   1.08033519
H    2.75261433   2.65223941  -0.12729681
H    4.34537977   1.85590284   0.01354160
O    1.06697565   1.74837496   3.62131457
H    1.78514977   1.74620267   2.97120342
C    1.60490039   1.30927971   4.85839424
H    0.78275458   1.31772260   5.57915092
H    2.39765991   1.97332040   5.23702286
H    2.00458902   0.28432545   4.80844328
O   -0.99425155   3.26996158   0.02117371
H   -0.43740755   3.06079431  -0.74341579
C   -0.18087045   3.92893211   0.97861969
H   -0.82372557   4.15727608   1.83306778
H    0.23619944   4.87619285   0.60241878
H    0.65031554   3.30055530   1.33506011
O   -2.96921934  -0.96390993  -0.54049280
H   -2.87555613  -1.24848231   0.38073955
C   -3.30223330   0.41506918  -0.53327563
H   -3.40396721   0.71916296  -1.57858055
H   -2.52125296   1.03871969  -0.07077474
H   -4.25698910   0.61930581  -0.02385822
O    0.74463413   2.59284496  -2.09317756
H    1.37911446   1.86998985  -2.20866983
C    0.78323357   3.39084906  -3.26545453
H    0.06284288   4.20011718  -3.11845945
H    0.49082827   2.83346796  -4.16911530
H    1.77249479   3.84200737  -3.44037096
O   -2.48865159  -1.60839993   2.15776002
H   -2.16057026  -0.87136079   2.69400550
C   -2.91327409  -2.63065234   3.04501958
H   -3.27972556  -3.45296017   2.42452916
H   -3.73459034  -2.30783104   3.70380889
H   -2.09473976  -3.01553435   3.67322713
O   -1.52533096   0.63571633   3.53915426
H   -0.64522527   1.03583958   3.60029859
C   -2.43188206   1.64939537   3.13523139
H   -3.41808481   1.18162455   3.07135799
H   -2.18814166   2.06848755   2.14642924
H   -2.49316032   2.47781387   3.85824252
O    0.59847295  -3.60269292  -2.88767991
H   -0.10162817  -2.93444979  -2.92930707
C    0.14149626  -4.74901300  -3.58743441
H    0.94203481  -5.49157744  -3.53067817
H   -0.06071019  -4.54561275  -4.65069272
H   -0.76367857  -5.18794848  -3.13935907
O    1.14214737  -3.40716663  -0.12003693
H    1.07073603  -3.59969340  -1.06674551
C   -0.12228267  -3.66663960   0.46854120
H   -0.02404602  -3.44467093   1.53463907
H   -0.43125730  -4.71867780   0.36593689
H   -0.92092804  -3.02841630   0.05913440
O   -1.40903547  -1.66364149  -2.77980188
H   -2.01948228  -1.43636955  -2.06277647
C   -0.94992208  -0.45078043  -3.35488164
H   -0.26357556  -0.72515043  -4.16057064
H   -0.40018878   0.17859882  -2.63762828
H   -1.76479701   0.14877948  -3.78994955
