72
Energy:   -416.11199148
O    2.19081605  -2.34317958  -2.31377011
H    1.41793289  -2.04653690  -2.81683871
C    1.82827538  -3.53125656  -1.62851751
H    2.71010483  -3.85164412  -1.06707843
H    1.54400248  -4.34654269  -2.31209250
H    1.00597786  -3.37527908  -0.91278352
O   -2.73755623   1.54318889   1.71610418
H   -2.53193890   0.78881889   2.28800513
C   -1.73011985   2.52184152   1.91571565
H   -1.97712422   3.36440610   1.26413375
H   -0.72644339   2.16100028   1.64148130
H   -1.69534740   2.89095941   2.95269211
O    1.79132703   1.44589214   3.01683780
H    2.30338078   0.63448785   2.88324389
C    0.98001617   1.25866451   4.16542574
H    0.41009906   2.18181216   4.30135999
H    1.56989093   1.08399873   5.07883527
H    0.26444501   0.42955460   4.05004815
O   -1.68257716  -2.74643080  -1.71288664
H   -1.17354465  -2.39225418  -2.45710979
C   -2.95934365  -2.12833267  -1.73174915
H   -3.51949578  -2.53858779  -0.88711578
H   -3.52305372  -2.34486088  -2.65268553
H   -2.90466389  -1.03556925  -1.60662695
O    3.68250129  -0.96202868  -0.36073148
H    3.26724504  -1.46344812  -1.07806269
C    3.69585847   0.40427876  -0.74225390
H    4.16681573   0.95457420   0.07680617
H    2.68462157   0.81394663  -0.89175135
H    4.28255857   0.58475792  -1.65657747
O    3.14955387  -0.91691676   2.39736605
H    3.42719443  -0.97156354   1.47089278
C    2.53655036  -2.15051422   2.73647925
H    2.22989250  -2.07171799   3.78301512
H    3.22394918  -3.00609122   2.64565972
H    1.63961418  -2.35979472   2.13275374
O   -0.11389606  -1.35637004  -3.62285259
H   -0.39627855  -0.44873207  -3.43609949
C    0.02784048  -1.48239073  -5.02875562
H    0.34629469  -2.51045779  -5.22149959
H    0.79196331  -0.80524389  -5.44150955
H   -0.91662974  -1.31069805  -5.56845457
O   -1.00347335   1.16540276  -2.87373335
H   -1.76159011   1.35091432  -2.29991482
C    0.04474896   2.04519000  -2.49991766
H    0.89061734   1.82273505  -3.15604697
H    0.37236658   1.89819478  -1.45884301
H   -0.22169921   3.10529206  -2.63395625
O   -0.66875740  -1.79249167   0.75742985
H   -1.04499821  -2.20237623  -0.03557757
C   -0.00488147  -0.60525449   0.35460186
H    0.41295308  -0.15637414   1.25981229
H   -0.68580753   0.12713540  -0.10661619
H    0.82373825  -0.79776946  -0.34475834
O    1.64344730   2.89021021   0.60991698
H    1.67745622   2.42183078   1.45719933
C    2.51829769   4.00349044   0.69810838
H    2.46780097   4.51974449  -0.26439722
H    3.56494036   3.70902466   0.87305513
H    2.22186076   4.71608705   1.48367095
O   -3.09986799   1.57766499  -1.06195185
H   -3.01758130   1.57061712  -0.09675628
C   -4.27481217   2.30251969  -1.38848762
H   -4.35217571   2.30064714  -2.47912807
H   -4.23587185   3.35000960  -1.05081047
H   -5.18711298   1.83967195  -0.98074196
O   -1.91966048  -0.79925150   3.07194227
H   -1.42425342  -1.19635525   2.34029773
C   -2.87636049  -1.75058151   3.51038277
H   -3.42541123  -1.28708542   4.33451860
H   -2.41381819  -2.67656342   3.88640064
H   -3.60080336  -2.01801973   2.72524797
