19
Energy:   -543.11533606
O   -0.33395794   0.75533288   3.54057191
H   -0.74137027   1.38780960   4.13236600
H    0.06950157   0.10943552   4.12045886
O   -0.47494205   0.99731817  -1.60345815
H   -0.75467319   1.85495422  -1.92352494
H   -0.30522400   0.48886836  -2.39649435
O    1.32078072   0.90165496   1.19821207
H    0.98293277   1.09900653   2.07179261
H    2.19208891   1.29765392   1.18276176
O    0.76026231  -1.63454846  -0.76122983
H    1.00335564  -2.49654148  -0.42343474
H    0.72772100  -1.74940757  -1.71095626
O   -1.44388699  -0.27860219   1.26766712
H   -1.19727708  -0.01042343   2.15281996
H   -2.38926842  -0.42099531   1.31467763
O    0.19250352  -0.71201157  -3.66866009
H   -0.47629170  -1.19084888  -4.15821053
H    0.81959770  -0.42813137  -4.33378924
Li   0.04152383   0.01529786   0.01479684
