19
Energy:   -542.83637242
O   -2.38731104   0.43717025   1.57796646
H   -3.07457874   1.08029859   1.40395243
H   -2.78735153  -0.18241244   2.18814411
O    1.38559619  -2.64969709   0.07030543
H    1.01432559  -3.53077414   0.11605713
H    2.29908535  -2.78693104  -0.18056556
O    0.60632192  -0.70242971   1.92780318
H    1.02902896  -0.73022129   2.78616105
H    0.98212189  -1.44257044   1.45115033
O   -0.03946839   2.13269690   0.16538006
H    0.16856143   2.12874320  -0.76893242
H    0.17510457   3.01935023   0.45526998
O    0.43234009   1.53436036  -2.53069009
H    1.28580845   1.66045811  -2.94532604
H   -0.20029290   1.80036798  -3.19795862
O   -0.35006977  -0.63216705  -0.88860163
H   -0.05255058  -0.12688137  -1.64517321
H    0.23504924  -1.38918472  -0.86046191
Li  -0.59692638   0.35457089   0.78915535
