19
Energy:   -536.86018202
O    1.19288145   1.86601994  -0.52282589
H    0.48874094   2.20957667  -1.07272294
H    1.87374988   2.53793699  -0.55714080
O   -1.49447313   1.01934229  -2.60086480
H   -2.34793353   1.44845236  -2.66170678
H   -1.29190955   0.75946824  -3.49956682
O    0.55318611  -0.06813685   2.11920910
H   -0.32480538  -0.44279214   2.18989289
H    0.78858599   0.16288046   3.01779118
O   -0.54398316  -0.62132054  -0.60009606
H   -0.98778653  -0.16950769  -1.31782550
H   -1.24918086  -0.87983021  -0.00671524
O    2.69400493  -1.02917600  -0.11439737
H    3.29178825  -1.42629454   0.51899336
H    3.02053432  -1.31824297  -0.96648345
O   -1.98301430  -1.19558432   1.76382235
H   -2.09708398  -2.11496771   2.00455900
H   -2.77648487  -0.76423732   2.08095965
Li   1.08808168   0.04756847   0.22631163
