19
Energy:   -512.61499313
O    1.30170410  -0.47481196   0.86225007
H    1.76953819  -0.87175344   0.12753885
H    1.47320690  -1.05984304   1.60019131
O    0.46113098   2.93330996   0.68594646
H   -0.02586892   3.73871419   0.86026505
H    1.36947950   3.21866391   0.58741766
O   -1.79480949   0.34105052   0.38252043
H   -2.24916689  -0.36174365   0.84714022
H   -2.46852570   0.73895699  -0.16884945
O    0.67712538   1.02011008  -1.61279982
H    1.37511233   0.40990662  -1.85091282
H    0.47824721   1.48600379  -2.42497122
O   -3.45699914  -2.48774064   1.48892866
H   -3.57893430  -2.74176178   2.40371657
H   -4.15055090  -2.94900849   1.01728285
O    2.64840265  -1.11822221  -1.56187743
H    3.57686454  -0.89987769  -1.48115538
H    2.63144940  -1.88794739  -2.13061954
Li   0.05848231   0.95802429   0.26420273
