19
Energy:   -540.53918703
O    1.11815683  -0.32862724   1.34766669
H    1.64808322   0.37083269   1.72998289
H    1.37226204  -1.11423672   1.83189818
O    2.55197206   1.82979737   2.24419823
H    3.47874696   1.86137489   2.48152289
H    2.14184145   2.50199536   2.78841748
O   -0.01634552  -1.49488172  -1.47187651
H   -0.91526345  -1.81511038  -1.54692323
H    0.48707854  -2.05145872  -2.06602978
O    1.01884329   1.65883431  -1.01561430
H    1.06197871   2.06193788  -1.88272369
H    1.65580215   2.14570546  -0.49266904
O   -2.74250479  -2.00495607  -1.21306643
H   -3.04755670  -2.72021549  -0.65487369
H   -3.38783659  -1.95911033  -1.91852860
O   -1.80643351   0.34344985   0.04900565
H   -2.42330721   1.01494328   0.34020192
H   -2.36024524  -0.36776787  -0.27300952
Li   0.10962739   0.07390583  -0.27634783
