19
Energy:   -510.32667231
O   -1.23894419   0.97472370  -0.83337426
H   -2.06625998   0.76121464  -1.26487665
H   -1.27656615   0.50854591   0.00178723
O   -0.70061300   0.23372894   1.99076538
H   -0.84824429   0.93718108   2.62289824
H   -0.79278253  -0.57079536   2.50113511
O   -1.39492700  -2.47428330   3.55297060
H   -1.65055241  -3.35355128   3.27408833
H   -1.56518650  -2.46226133   4.49482995
O    1.49157898   0.03312603   0.20449120
H    0.92866080   0.10745432   0.97509504
H    2.37330135  -0.07524909   0.56093522
O    1.46232412   2.31894562  -2.37088947
H    2.21349709   2.35341568  -2.96315869
H    1.25188367   3.23630595  -2.19654301
O    0.45646102  -0.76091515  -2.87466977
H    0.96878320  -1.53941712  -2.65628366
H   -0.21204585  -1.07636938  -3.48279726
Li   0.62965249   0.75639104  -1.52937858
