19
Energy:   -537.39668216
O    1.62786925  -0.25441886   2.13505074
H    2.46558346  -0.71630440   2.10145772
H    1.75929302   0.43385841   2.78715045
O   -0.27593545   3.37998671  -0.83204805
H   -1.05133459   3.92356559  -0.97172636
H    0.46128731   3.97990307  -0.94533888
O    0.34620765  -2.21687603  -0.06164515
H    0.29231597  -2.02211692  -0.99727137
H    0.39425181  -3.17185805  -0.01767980
O    0.07366499  -1.10391191  -2.60751665
H   -0.67036650  -1.30478243  -3.17523139
H    0.81682069  -1.02325034  -3.20538382
O   -1.54309433  -0.64225358   2.14462928
H   -2.35395789  -0.17163278   1.95163133
H   -1.72859436  -1.11794268   2.95428443
O   -0.23255720   0.68357811  -0.44086858
H   -0.18029231   0.31953113  -1.32459366
H   -0.24910821   1.63155067  -0.57242061
Li   0.05645290  -0.58948705   1.00750564
