19
Energy:   -508.63546355
O    2.68902860  -3.45513646   0.33373519
H    2.31545664  -4.32765076   0.45781037
H    3.55890996  -3.50800104   0.72964378
O    1.71597893  -1.45772950  -1.23158379
H    2.05323359  -2.15745310  -0.67222877
H    2.04028861  -1.67231164  -2.10623205
O   -3.98567541   2.23199377   0.72025829
H   -4.55972014   1.98060441   1.44379674
H   -4.57310152   2.61925341   0.07126492
O   -0.82221893  -0.55202824  -0.59942536
H   -0.07814814  -1.07493151  -0.89802659
H   -1.58831668  -1.09219197  -0.79320159
O    1.69089380   1.05357971  -0.07308187
H    1.94610845   0.22213980  -0.47283805
H    2.51629540   1.52026506   0.05787171
O   -1.30323818   2.56057916   0.84514329
H   -1.14511877   3.41131026   1.25439466
H   -2.25670503   2.48011560   0.81948355
Li  -0.23195764   1.13861826   0.13076017
