19
Energy:   -542.68892693
O   -0.30720431   0.30359991   3.83483046
H   -0.27728983  -0.43661108   4.44098609
H   -0.35249641   1.07486281   4.39992694
O   -0.01197365   1.40701950  -1.34687980
H    0.04503256   2.36132175  -1.39472712
H   -0.13181621   1.12794978  -2.25461858
O    1.65992291  -0.01962475   1.28156762
H    2.59216921  -0.23318207   1.24229997
H    1.50562380   0.21417464   2.19686073
O    0.19137170  -1.52271929  -1.27613541
H    0.17076867  -2.47967034  -1.26892181
H    0.11381555  -1.28797053  -2.20085694
O   -1.31180416  -0.02165096   1.27378765
H   -1.11000898   0.09251666   2.20248368
H   -2.25170564  -0.20158406   1.25278441
O   -0.19699087  -0.11966790  -3.73990781
H   -0.99303176  -0.19749674  -4.26573422
H    0.50923949  -0.05095698  -4.38236352
Li   0.16203088  -0.02823445  -0.01158407
