19
Energy:   -521.20519321
O    0.77631511  -0.77829924   1.26748365
H    1.64362632  -0.92393072   0.88960195
H    0.87333483  -1.01590119   2.18963567
O   -2.02485666  -1.30851385  -0.15812499
H   -2.08877428  -2.25560240  -0.03495981
H   -2.91826912  -1.03222968  -0.36236276
O    0.04229795   2.14159778   0.10130005
H    0.26234612   2.19055458  -0.82897619
H    0.63668970   2.76315080   0.52154062
O    0.10087502   0.05062296  -1.70841307
H    0.99294834  -0.29563170  -1.68507331
H   -0.29947515  -0.36872864  -2.47005329
O   -1.95672370   0.89534810   1.71422116
H   -1.95687251   1.84496287   1.83448591
H   -2.63789744   0.57823370   2.30724110
O    2.75187309  -0.81742381  -1.14860567
H    3.10586372  -1.69883526  -1.26708073
H    3.45767370  -0.23546360  -1.43038510
Li  -0.66730522   0.18722608   0.26109922
