19
Energy:   -511.01155917
O   -0.54666282   0.44097926   3.41154541
H   -1.17218071   1.08997943   3.73366031
H   -0.36743172  -0.11616033   4.16897761
O    1.70047048   1.46333502   2.12181565
H    2.22873866   2.04708184   2.66624584
H    0.97844656   1.19377965   2.68948915
O    1.79566780   0.48523618  -0.38565565
H    2.58667398   0.75963620  -0.84960144
H    1.87078827   0.89145268   0.47781231
O   -0.20121190  -1.56756650  -2.19811135
H   -0.01059226  -2.44137589  -2.53921712
H   -0.65765420  -1.12493361  -2.91363102
O   -0.96202047  -0.73848392   0.92811308
H   -0.82643164  -0.33488806   1.78540993
H   -1.78334676  -1.22185119   1.01761760
O   -1.48699085  -0.21142670  -4.15318262
H   -2.41499109  -0.26812243  -4.38085124
H   -1.08415224   0.23566056  -4.89753864
Li   0.21372537  -0.57807957  -0.60063406
