19
Energy:   -541.68436007
O   -0.14492184  -0.06289343   3.67331691
H   -0.39542692   0.66081258   4.24753696
H   -0.08923963  -0.82178736   4.25401593
O   -0.20849276   1.66727551  -1.07491286
H    0.00166313   2.58352253  -0.89447518
H   -0.35647209   1.63664180  -2.02010889
O    1.35378891   0.21683926   1.38534286
H    2.29525634   0.07418761   1.48292070
H    1.00903156   0.16148253   2.27658349
O    0.30197380  -1.27991275  -1.39197023
H    0.41198009  -2.22151422  -1.52432253
H    0.34915733  -0.90671755  -2.27215822
O   -1.55647441  -0.44731230   1.21373240
H   -1.32945527  -0.39150861   2.14194579
H   -2.43784081  -0.82058870   1.20425342
O    0.25950290  -0.04656930  -3.84611762
H   -0.45111756  -0.17967782  -4.47343933
H    1.02901214   0.12671715  -4.38838988
Li  -0.05060359   0.02831879   0.03205927
