19
Energy:   -508.84702808
O   -0.42779910   2.27297398  -1.31184645
H    0.24009669   2.22492756  -0.62785917
H   -0.15277149   3.00423340  -1.86488471
O   -1.53226399   0.46723778   0.85737849
H   -1.33640926  -0.46388708   0.96168219
H   -0.76957211   0.91533759   1.22308261
O    1.03849628   1.55808700   0.95347975
H    1.51699793   0.72908481   0.94864227
H    1.52161589   2.11045737   1.56806437
O   -0.43893398  -2.03678618   0.27215136
H    0.47159642  -1.81457706   0.46654620
H   -0.54757971  -2.92429757   0.61384052
O   -1.68891555  -0.79555782  -1.89341721
H   -1.26394754  -1.43469580  -1.32145858
H   -1.91837941  -1.29181876  -2.67910370
O    2.10718033  -1.03501372   0.89168844
H    2.79172757  -1.19313820   0.24159338
H    2.48246633  -1.34543014   1.71572359
Li  -1.78122877   0.92219791  -1.00325436
