19
Energy:   -513.11323898
O    2.40209590  -2.87361354  -0.93313069
H    3.27680476  -3.20376355  -0.72790588
H    2.03679780  -3.52071240  -1.53649809
O   -2.46847876  -0.10883730  -1.23261670
H   -2.70489830  -1.02359116  -1.38611920
H   -3.02212797   0.38664723  -1.83610612
O   -0.59050956   2.13774560   0.62850596
H   -0.23808566   1.91953326   1.49129946
H   -1.00445849   2.99256093   0.74753907
O    0.21472384   0.95744307  -2.24190864
H    0.56623099   0.33389163  -2.87740700
H    0.53368196   1.80932838  -2.53988343
O    0.19016131   0.77243398   3.01276446
H   -0.55381182   0.67278822   3.60673967
H    0.94682586   0.87208083   3.59048508
O    0.16266826  -0.72164967   0.64573850
H    0.24678634  -0.45820014   1.56211743
H    0.67702042  -1.52616050   0.57913497
Li  -0.70234804   0.55586406  -0.54919311
