19
Energy:   -530.17360478
O    2.36857045  -1.30298907  -1.24692523
H    2.32954014  -2.10182484  -1.77282436
H    3.21436930  -0.91224935  -1.46642150
O   -0.72367126   1.69659548   1.93148334
H   -0.26592840   2.50848561   1.71345183
H   -1.45844237   1.97475630   2.47826467
O    1.13599573  -0.96746199   1.86847075
H    1.49758729  -1.08001303   2.74757009
H    1.79879201  -1.33984319   1.28686505
O   -0.92417183   1.67325829  -2.71884402
H   -1.72014227   1.69059182  -3.25022191
H   -0.38048845   2.37439588  -3.07807417
O   -2.04866602  -1.19121889   1.25346727
H   -2.66815377  -1.34700369   0.54058729
H   -2.27616611  -1.84358314   1.91595987
O    0.04731460   0.07213631  -0.76143994
H    0.83375896  -0.37523709  -1.07384061
H   -0.27486479   0.55203393  -1.52441475
Li  -0.45826311  -0.07905438   1.10404687
