19
Energy:   -542.97842265
O    0.94529464   0.35863091   3.51893570
H    1.28251038   1.17499483   3.88780877
H    0.85335526  -0.22504904   4.27199395
O    0.39918436   1.04213970  -1.45286912
H    0.92202527   1.81999650  -1.64731197
H   -0.09751466   0.88018802  -2.25492497
O    1.68996005  -0.75293734   1.04396094
H    2.58758242  -1.05924215   0.91479711
H    1.68120018  -0.40458996   1.93548168
O   -0.85107792  -1.63374358  -1.04680138
H   -1.18561379  -2.50762523  -0.84518671
H   -1.13568368  -1.46933341  -1.94580122
O   -0.91132844   0.59111566   1.41800975
H   -0.43938678   0.65613932   2.24823553
H   -1.71540336   1.09086074   1.55925501
O   -1.19498828   0.18898898  -3.52448616
H   -0.85946068   0.16021156  -4.42049115
H   -2.11829671   0.42212235  -3.62134799
Li   0.11908512  -0.24871014  -0.01764264
