19
Energy:   -542.74818016
O    0.05959741   0.08075844   3.67576572
H    0.24030810   0.90559361   4.12656771
H   -0.03324314  -0.56181200   4.37912602
O   -0.08266081   1.42150488  -1.29412645
H   -0.11116482   2.37669295  -1.34921837
H   -0.08133184   1.12849416  -2.20537548
O    1.43587813  -0.14104869   1.27653663
H    2.36483988   0.08749477   1.30862713
H    1.14600259  -0.09585443   2.18766861
O    0.14149876  -1.63039432  -1.23559082
H    0.41078903  -2.54583175  -1.16016590
H   -0.05525539  -1.51391995  -2.16508174
O   -1.50276752   0.02934251   1.27920662
H   -1.20035713   0.02122195   2.18734419
H   -2.45749014   0.05146989   1.34437512
O   -0.07242995   0.16786734  -3.71625311
H   -0.81451170   0.00524417  -4.29857623
H    0.66477219   0.32705767  -4.30567935
Li  -0.04632715  -0.08412856  -0.03074223
