19
Energy:   -542.77077703
O    0.40758238  -0.58030382   3.55424276
H    0.64833467  -1.42814393   3.92765584
H    0.37015677   0.01109046   4.30596344
O   -0.77007517   1.66982290  -1.06644386
H   -1.10494191   2.54953550  -0.89265705
H   -0.70189864   1.62303628  -2.02006581
O    1.47152474   0.39179167   1.12369204
H    2.36492843   0.73278340   1.08142701
H    1.34891534   0.15325046   2.04254833
O    0.26329619  -1.25116308  -1.32996727
H    0.57571149  -2.14657631  -1.45982748
H    0.18439278  -0.89386780  -2.21447062
O   -1.43951432  -0.36918488   1.42455440
H   -1.02428111  -0.53812541   2.27029214
H   -2.37843927  -0.39289059   1.60918872
O   -0.02481085   0.11697037  -3.73151092
H   -0.66463829  -0.23943298  -4.34781388
H    0.66232753   0.48667221  -4.28594148
Li  -0.15604326   0.13173530   0.02596861
