19
Energy:   -512.23595255
O   -2.01911432   2.17870968   2.29627616
H   -2.11813307   3.10243626   2.52683276
H   -2.60906757   1.71789755   2.89279874
O   -1.82847119  -2.24675559  -1.73459904
H   -2.59112877  -1.66832240  -1.73404528
H   -2.19378561  -3.12545409  -1.83787623
O   -0.53199919   1.07535678  -0.32187850
H   -0.98115205   1.23222150  -1.15247287
H   -1.04789261   1.55711317   0.32464808
O    1.19112369  -0.51827606   1.63814148
H    1.12187797   0.06431855   2.39446178
H    1.11821127  -1.39891532   2.00609545
O    0.87386864  -1.62083107  -1.35877559
H    1.34188749  -2.21043217  -1.95001222
H   -0.03671140  -1.91307797  -1.39961164
O    2.69927729   1.08721560  -0.71839797
H    3.58563517   0.73085677  -0.65831514
H    2.82689274   2.02187958  -0.88072295
Li   1.11517525  -0.04692187  -0.25239644
