19
Energy:   -544.10336462
O    0.13961667   2.15529861   2.45439372
H   -0.59056357   2.53877758   2.94020494
H    0.92055862   2.54377442   2.84866275
O   -0.03023497   1.53784289  -0.76321565
H   -0.04722468   2.41469181  -1.14672467
H   -0.07151233   0.94639097  -1.51468931
O    1.55880948  -0.48008981   1.00714620
H    1.26499799  -1.23790093   0.50154858
H    2.41536956  -0.73687538   1.34861048
O   -0.04338223  -2.12995764  -0.57627738
H   -0.06138806  -3.05782601  -0.81072978
H   -0.08291061  -1.66977347  -1.41466863
O   -1.45395420  -0.46128167   1.16221999
H   -1.22269243  -1.22216510   0.62948530
H   -2.27594808  -0.70657941   1.58693981
O   -0.14274284  -0.40577668  -2.76614406
H   -0.92806609  -0.41979202  -3.31322980
H    0.58392146  -0.42893282  -3.38876324
Li   0.05865152   0.79209676   1.05165005
