19
Energy:   -510.14213088
O   -0.95783394   1.24271582   2.78018242
H   -1.66780951   1.21227794   3.42146245
H   -0.32672475   1.86011139   3.14998743
O    0.49870060  -2.54899093  -1.82628767
H    0.08310011  -3.35953734  -1.53214044
H    0.96382028  -2.79432214  -2.62610524
O   -0.66959561   0.14967656  -1.48761994
H   -1.15436421  -0.04587812  -2.28948627
H   -1.20192452   0.80707951  -1.03964768
O    2.57587722  -0.16402883  -1.17299845
H    2.54088229   0.02528885  -2.11063698
H    3.40293216   0.21962199  -0.88140964
O   -1.84442723   1.89563389   0.12298752
H   -1.72136143   1.90694911   1.07217592
H   -2.38063969   2.66744747  -0.05870410
O    0.51244651  -0.74851849   1.35674743
H   -0.02976014  -0.10664301   1.81526642
H    0.52835413  -1.50850818   1.93846426
Li   0.88598486  -0.69443503  -0.57335465
