19
Energy:   -528.28306225
O   -0.26405123   0.75087143   2.68383074
H   -1.05090314   0.71459522   3.22768731
H    0.41230093   1.10144816   3.26337845
O   -0.08542176   1.32790673  -0.94973829
H   -0.35049363   2.17088527  -1.31764577
H    0.01771120   0.75590636  -1.71027167
O    2.00608658   0.51952533   0.92064351
H    2.41043600   1.23995060   0.43719669
H    2.74436809   0.00182639   1.24182891
O    0.18848420  -1.62097899  -0.09780006
H    0.47271266  -2.51847444   0.07525468
H    0.25368306  -1.52763568  -1.04820417
O   -2.16318919  -0.07281647   0.67616309
H   -2.92023599   0.49822180   0.54567447
H   -2.50935685  -0.95868034   0.56825110
O    0.27254031  -0.77498520  -2.77012788
H   -0.42085132  -1.03441479  -3.37687015
H    1.07645671  -0.82984294  -3.28679111
Li  -0.07377531   0.20976979   0.74982290
