19
Energy:   -539.26499442
O    0.30550759   1.56764447  -2.39403424
H   -0.31647817   1.76708811  -3.09373975
H    1.13738026   1.92656449  -2.70289688
O   -0.15468478   2.24946116   0.26532843
H   -0.07348259   2.13687454  -0.68175251
H   -0.13645595   3.19742081   0.39675162
O    0.25402121  -2.95096546   1.37681636
H   -0.38102813  -3.52733884   1.80194918
H    1.08576262  -3.42008272   1.44290013
O    0.27308734  -1.00226945  -1.28510069
H    0.29685129  -0.14698260  -1.71422949
H    0.28493557  -1.63257425  -2.00538351
O    1.14275697   0.20164887   1.50023681
H    0.84766610   1.04926269   1.16751465
H    1.85048879   0.41565340   2.10814270
O   -1.81631222  -0.42637742   0.96197645
H   -1.86701783   0.50009581   1.19715330
H   -2.72698847  -0.69139410   0.83287664
Li  -0.00947445  -1.14682616   0.66924155
