19
Energy:   -509.67412975
O    2.25696149  -1.42434555   0.37192977
H    3.02814328  -1.94518791   0.59605863
H    1.62817638  -2.06076257   0.03158509
O    2.03252828   2.09934714   0.93606265
H    2.85729948   2.47701677   1.24159491
H    1.42232300   2.83665621   0.92004057
O   -0.44069069   0.45997632   0.04104881
H   -1.12576491  -0.11970801  -0.29192450
H   -0.85533214   1.32164001   0.08394407
O   -2.20050023  -1.50119600  -0.87251933
H   -2.93203611  -1.84547505  -0.36011418
H   -2.55059127  -1.40886916  -1.75860277
O   -1.21440255   3.07732691   0.27374610
H   -1.67700211   3.50695512   0.99322723
H   -1.48374054   3.56066427  -0.50732617
O    0.20428572  -2.89159207  -0.59961068
H    0.11247502  -3.78858942  -0.92085576
H   -0.66594085  -2.50779414  -0.70748424
Li   1.41601858   0.28481409   0.50414430
