19
Energy:   -527.46413946
O   -2.37111378  -2.40145072   0.99504307
H   -2.60183886  -3.28314438   0.70244423
H   -2.76892745  -2.32460577   1.86226333
O    1.43948377   1.36362462  -0.48565818
H    1.65007588   2.16149558  -0.00059660
H    1.98783488   1.40721627  -1.26901166
O    0.65021178  -0.83341961   0.88727703
H    1.12095302  -0.89715026   1.71828421
H    1.01554523  -0.05679964   0.46345545
O    2.22967226   3.62609519   0.81530645
H    2.06406225   4.52151512   0.52030082
H    2.92706850   3.71265347   1.46521259
O   -1.76231802   0.34663155  -0.71231091
H   -1.17043340   1.09671261  -0.76960697
H   -2.63308095   0.71633707  -0.85833006
O   -0.43095459  -2.46240379  -1.47317760
H   -0.78979440  -2.58971845  -2.35138989
H    0.48964052  -2.71261084  -1.55149054
Li  -1.02907578  -1.34672463   0.03104922
