19
Energy:   -541.63779519
O    0.11504077   0.02479375   3.62073711
H   -0.20787935   0.70939805   4.20663079
H    0.43893608  -0.65936965   4.20660750
O   -0.64241958   1.31983470  -1.31695871
H   -1.01013837   2.19955841  -1.40122584
H   -0.53136821   1.01874888  -2.21876067
O    1.38458943   0.60748496   1.21100959
H    2.24755510   1.02123206   1.22932497
H    1.14069253   0.52018922   2.13248970
O    0.59257791  -1.53528646  -1.07309238
H    0.66873910  -2.46338867  -0.85160284
H    0.88535967  -1.48084611  -1.98278845
O   -1.38079109  -0.63798363   1.27757558
H   -1.12326670  -0.50574251   2.18994903
H   -2.27887032  -0.96549950   1.32675786
O   -0.08724954   0.25309836  -3.77780591
H   -0.75430664  -0.07240495  -4.38221824
H    0.58944906   0.62385206  -4.34424440
Li  -0.04137898   0.00551477  -0.02303529
