19
Energy:   -511.79454954
O   -0.37842161   2.21919833   0.26176631
H   -0.24352935   3.02125469   0.76648555
H   -1.28218876   1.96627674   0.45009438
O   -2.73925046   0.66777398   0.83138262
H   -3.37756101   0.35607093   0.18979655
H   -3.26465162   0.91308422   1.59296541
O    2.47666905   0.39524403  -0.88060750
H    2.89166830  -0.20481956  -1.50022928
H    3.19573812   0.93313549  -0.54917982
O   -0.21141112  -0.99960233   0.27995123
H   -1.01212856  -0.89160700   0.79319623
H    0.30711089  -1.63401166   0.77481644
O    1.48606600  -2.68119441   1.91444132
H    1.09725352  -2.80999857   2.77958072
H    1.87633955  -3.52805434   1.69823153
O   -0.36952689   0.63741933  -2.55017615
H   -0.44236594  -0.26293902  -2.86684816
H   -0.51777472   1.17755813  -3.32638779
Li   0.41029879   0.67093066  -0.65544333
