19
Energy:   -510.47166442
O   -2.46510755  -0.67808777   1.67407135
H   -3.32616834  -1.08962904   1.74782732
H   -2.37893380  -0.15712019   2.47244389
O    2.76233392  -0.06047821   2.28178630
H    2.47178559  -0.27846707   3.16739026
H    3.70748681  -0.21125407   2.29536954
O   -1.74638682   0.97859202  -0.70291831
H   -2.24933333   0.62529802   0.03088003
H   -2.24251113   1.74658442  -0.98625589
O    0.16256441   0.26721382  -3.20673609
H   -0.58494694   0.40443558  -3.78865431
H    0.89622077   0.09140935  -3.79586510
O    1.65686377   0.90497257  -0.49263801
H    2.45491248   1.09558868  -0.98560414
H    1.87019086   1.14127822   0.41007071
O   -0.31533156  -1.49355258   0.01836250
H    0.32271164  -2.02716823   0.49205763
H   -0.99659070  -1.30476157   0.66371185
Li  -0.03356807   0.10102788  -1.19743649
