19
Energy:   -531.43621560
O    0.71727457  -0.24481147   2.53389750
H    0.03809189  -0.42325188   3.18436023
H    1.44786285   0.10950232   3.04078441
O   -3.30096425   1.35767556   0.91036198
H   -3.49073961   2.18946068   0.47636811
H   -4.06198456   1.19931474   1.46893319
O    1.17185510   1.19016837  -0.40420976
H    1.37991676   0.92385689  -1.29976567
H    1.42787571   2.11153766  -0.36221058
O    1.42978882  -1.85315720  -0.19337731
H    1.74910616  -2.69457496   0.13263562
H    1.65054188  -1.85724367  -1.12476511
O   -1.48907651  -0.59815402   0.32028374
H   -2.02959103  -1.32087440   0.00129919
H   -2.11347388   0.10073689   0.51499192
O    1.64270413   0.02650411  -2.89994412
H    0.93772641   0.25448714  -3.50596558
H    2.40720394  -0.10668919  -3.46032919
Li   0.44239213  -0.33613761   0.58752111
