19
Energy:   -531.61539754
O    0.40628306   1.67406730   3.58796496
H   -0.15252014   2.15670774   4.19708650
H    1.12283300   1.34377729   4.12990271
O   -0.68294336   0.33996333  -2.02404874
H   -1.20057362   0.83513760  -2.65894496
H   -0.09971662  -0.19920760  -2.55825200
O    0.19285513   1.56227767   0.86973464
H    0.30574552   1.61297537   1.81890130
H    0.36679774   2.45096659   0.55956077
O    0.94751690  -1.42910547   0.04638816
H    1.21055903  -1.95770055  -0.70702269
H    1.65403777  -1.54774586   0.68119882
O   -2.15112772  -0.61844167   0.71076032
H   -2.35277991  -0.88247557   1.60845423
H   -2.99823358  -0.61676705   0.26506904
O    1.12291119  -1.41187602  -3.18356467
H    0.94225548  -2.27750246  -3.55001554
H    1.84580595  -1.07365560  -3.71201709
Li  -0.43978493  -0.02845017  -0.09600095
