19
Energy:   -511.95643422
O   -0.95598357   0.44973319   1.24196243
H   -0.03257550   0.58466004   1.45490407
H   -1.42804913   1.01937833   1.84932588
O   -2.55446592  -2.29549596   0.09589223
H   -2.74920772  -2.61687646   0.97624560
H   -2.81635226  -3.01058049  -0.48402285
O    3.73028723   1.94166377  -0.14720036
H    4.64330886   1.87568425   0.13256750
H    3.74687851   2.56175850  -0.87619905
O   -2.48440178   0.45875136  -1.56437503
H   -2.75794565   0.15512564  -2.42994826
H   -2.59601330   1.40886235  -1.59699126
O    1.74336757   0.55272333   1.78183760
H    2.29551411   1.02935703   1.16200992
H    2.34695542   0.25886036   2.46415579
O    0.10995213  -1.20414286  -1.22091933
H    0.77613079  -1.73529844  -0.78467215
H    0.57254059  -0.78965797  -1.94923660
Li  -1.54016028  -0.66740542  -0.23412734
