19
Energy:   -521.81879569
O   -0.41549743  -0.28266066   2.62851758
H    0.30622586  -0.36424121   3.25196922
H   -1.18446910  -0.11242586   3.17251624
O    0.14698145   1.35705559  -0.27073489
H    0.44448144   1.44721075  -1.17605121
H    0.15926860   2.24920668   0.07588784
O    1.84655462  -0.74574302   0.81928333
H    2.37175493  -0.05736749   0.41119558
H    2.48906780  -1.37233448   1.15213735
O   -0.41124051  -2.07079067  -0.48879013
H   -1.21390429  -2.44070331  -0.85638684
H    0.28148189  -2.66390956  -0.77961225
O   -2.32392467  -0.04810457   0.39178962
H   -2.51937405   0.72094278  -0.14355846
H   -3.18146357  -0.37745880   0.66083364
O    1.06208566   1.64296358  -2.81742282
H    0.67881014   1.30504455  -3.62683151
H    1.73388230   2.25930589  -3.10904465
Li  -0.24683487  -0.41236331   0.63268320
