19
Energy:   -542.01251285
O    0.08559012  -0.34429900   3.70359709
H    0.01611036   0.33832758   4.37099905
H    0.20554850  -1.15390423   4.19996510
O   -0.31798563   1.38034362  -1.13936629
H   -0.59936066   2.28515753  -1.00382395
H   -0.36298315   1.25445310  -2.08718412
O    1.57826178   0.11031429   1.32557043
H    2.49668464   0.37277610   1.38757926
H    1.28693786   0.03972652   2.23462466
O    0.36166606  -1.49393264  -1.43269349
H    0.23936947  -1.27256233  -2.35587851
H    0.74409173  -2.37133395  -1.44491661
O   -1.31082498  -0.47183077   1.29944149
H   -1.00800663  -0.49381212   2.20721333
H   -2.24728112  -0.66232358   1.35416124
O   -0.37453849   0.75964363  -3.82404858
H    0.25657881   1.19426259  -4.39765921
H   -1.17023039   0.69029036  -4.35158660
Li   0.12212552  -0.14513405  -0.01030496
