19
Energy:   -509.75670669
O    0.97369201  -0.92895760  -2.20079842
H    0.97620669  -1.59308926  -2.89011306
H    1.89952066  -0.74817097  -2.03835041
O    3.66040792   1.10679098   1.10750150
H    4.45567894   1.02402363   0.58126447
H    3.97216323   1.36740040   1.97417515
O   -1.91780322  -0.00836230   2.46500628
H   -2.36691048   0.83308488   2.54563605
H   -1.68202160  -0.24155994   3.36292483
O   -1.81094793  -1.59479903  -0.18545881
H   -2.19670793  -2.44624713  -0.39151024
H   -2.05575549  -1.43465187   0.72594341
O    0.32490547   0.43033875   0.63690094
H    1.21570246   0.55178584   0.96547842
H   -0.20559912   0.30239926   1.42330301
O   -1.40184569   0.97426408  -2.11401525
H   -2.23188550   1.43374746  -1.98696883
H   -1.08009321   1.28912155  -2.95874713
Li  -0.49069397  -0.34494785  -0.97386068
