19
Energy:   -531.13773823
O   -0.78256868  -0.87475133   2.86778201
H   -0.43649547  -0.14615553   3.38315890
H   -1.26240043  -1.40950973   3.50025872
O    0.77182907   1.11472118  -1.44002662
H    0.76741158   1.82022679  -0.79313083
H    1.09759096   1.52548795  -2.24088972
O    0.70021501   3.22347852   0.27871019
H    1.42827488   3.71620571   0.65736649
H   -0.03339649   3.83832109   0.28253342
O    1.27662880  -1.58499617   0.28002011
H    0.98732109  -1.89300745   1.13889260
H    2.23185090  -1.63444841   0.31658609
O   -1.52820757  -0.50614483   0.22339427
H   -1.36924715  -0.63731224   1.15814480
H   -2.45311349  -0.26575929   0.16866140
O   -0.36907921  -1.63225846  -2.61107741
H   -0.96236063  -1.40482415  -3.32698427
H   -0.13342665  -2.54530130  -2.77555383
Li   0.03563945  -0.63396885  -0.95742043
