19
Energy:   -539.57892838
O    0.15387783   1.83046487   0.10236205
H    0.79046822   1.46351569   0.71582177
H    0.11464870   2.76059113   0.32497846
O    0.49802986   0.21069530  -2.57492517
H    0.61947703  -0.53420394  -3.16365903
H    1.21405084   0.80760630  -2.79227987
O    0.70700383  -2.00235355   2.15050826
H    0.29518628  -2.10909345   3.00797240
H    1.27453230  -2.76781511   2.05988888
O   -2.43947056   1.03562794  -1.65899744
H   -3.20248336   1.30454800  -1.14740649
H   -2.68877866   1.20306707  -2.56786567
O    1.84394033   0.50270999   1.72883539
H    2.63202969   0.65776217   2.24951363
H    1.56045943  -0.37676614   1.97861963
O   -0.86727103  -1.21270634  -0.01168420
H   -0.32253235  -1.48610693   0.72638336
H   -1.53159435  -1.89778039  -0.08638305
Li  -0.67099108   0.46387438  -1.01247734
