19
Energy:   -510.94435237
O   -0.83791207   0.39337685   1.84887015
H   -1.10925504   1.29672702   2.01185265
H   -1.14381750  -0.09113861   2.61561553
O    2.39402564   0.11806775  -1.79355241
H    2.69305202   0.16052221  -2.70185450
H    3.08210929   0.55717443  -1.29359435
O    0.74045345  -2.62709533  -2.19007219
H    0.32189642  -2.73396479  -3.04425061
H    0.84231853  -3.51956819  -1.85939478
O   -0.97276673  -0.14116570  -0.94289740
H   -1.57925509   0.41978561  -1.42636130
H   -1.09649416   0.10550070  -0.02633913
O    1.51547348  -0.68668220   0.75142988
H    2.32896426  -0.87503777   1.21939012
H    0.89925232  -0.42696655   1.43630294
O   -2.73484460   2.69046881   2.12673080
H   -2.51333423   3.49757671   2.59121099
H   -3.61784241   2.84211442   1.78975850
Li   0.82452233  -0.94925098  -1.13242311
