19
Energy:   -531.94038085
O   -1.93320784   0.52741196   0.58341752
H   -2.27341798   1.30605348   1.02410595
H   -2.38106885  -0.20393533   1.00860396
O    0.63854763   1.94474287  -0.98584950
H    1.58170861   1.95802472  -1.14864632
H    0.31790088   2.76273929  -1.36571707
O    1.23020519  -0.48159825   0.74734913
H    1.43694115  -0.90024479   1.58294902
H    2.07671910  -0.18917836   0.40950797
O   -3.17804859  -1.51249850   1.91521598
H   -4.06981397  -1.83805309   1.79273920
H   -2.90136104  -1.88050559   2.75441001
O   -0.49293692  -0.94404465  -1.85216713
H    0.00104515  -1.74929252  -2.00640535
H   -1.21981935  -0.98565538  -2.47357065
O    3.45573102   0.60357060  -0.47941968
H    3.93466517   0.17733152  -1.19017573
H    4.12771100   1.07239650   0.01543084
Li  -0.22420573   0.29058285  -0.33023688
