19
Energy:   -521.12825224
O   -0.36653100  -0.34670656   3.47744674
H   -0.18216083   0.31979523   4.13927365
H   -0.40312887  -1.16802918   3.96767280
O    0.42107842   2.10657711  -0.36660153
H   -0.08600845   2.58028819   0.29271066
H    1.16389279   2.67991756  -0.55565016
O    2.09847435  -0.19291043  -1.02884750
H    2.80502217  -0.36948371  -0.40768415
H    2.53167582  -0.15885051  -1.88172982
O   -0.18895156  -2.00180249  -0.84052360
H   -0.83212550  -2.44462747  -0.28693065
H    0.36402047  -2.70692447  -1.17706002
O   -1.17632670   0.06952400   0.91143168
H   -0.88433575  -0.07760433   1.81105737
H   -2.12157481   0.20145091   0.98446019
O   -0.85765236   0.40773312  -2.43063680
H   -1.05319973   1.25351062  -2.83394003
H   -1.27412118  -0.23431636  -3.00557857
Li   0.09038452   0.06688852  -0.69622264
