336
 energy: -570.093914496936 gnorm: 0.002311138861 xtb: 6.3.3 (5b13467)
O         7.94791752283193    6.58794171375872    9.69803937972056
H         7.02804796635443    6.86443625476125    9.81232325873501
H         8.46554297599575    7.06160805170871   10.36846319936582
O         2.30032081423135    4.18296276716555   11.09857148700547
H         3.06342285503016    3.66155491091791   11.44761146621791
H         1.84128552772431    3.54600815678047   10.51608839114362
O         3.50551727007585    1.56199310703520    4.03653944413691
H         3.93822118938158    1.43405164528301    3.17756395096379
H         4.08624662029478    1.19186024238471    4.72367399168392
O         4.18757471361950    2.11303700596424    8.30151413191328
H         4.92638091867486    2.63255007443053    8.68114105673715
H         4.58378253642484    1.55738821703913    7.60099893020657
O         0.87056281438926    8.08721689894837    9.32906483476570
H         0.14853280880261    8.54807799145086    9.76019483974088
H         1.36000012417906    7.63368752120606   10.05093570697089
O         3.16609800004391    8.97192115446803    8.11358590687138
H         3.05892247699217    9.90509506586963    7.87677573273864
H         2.33387535335259    8.70770785684220    8.53515881135805
O         0.75546048520094    9.47285018509329   14.66236561239804
H         1.23146442185033   10.27439386967667   14.36068491375529
H         0.37123986722374    9.67681912773158   15.51424488781598
O         1.33070988896976    6.13240944722653    7.53185007225567
H         0.63841477225922    5.59474204508733    7.13157557526179
H         0.91297248529754    6.86519328552801    8.00799165044203
O        10.42839026072627    6.42787184539450    3.31724706201900
H        11.23445318152659    5.97748106008029    3.01897476266732
H        10.64348801804339    7.38113190350020    3.30786098830097
O         4.95160009223382   13.56550625263592   12.36741833914744
H         4.94502352613260   13.61265023697952   11.38991244420196
H         4.07912703979451   13.87862941461770   12.64210384445528
O        11.01400873000901    8.99592162254399    8.73190638077729
H        11.72975019780353    8.35852425816926    8.90034018837702
H        10.78073557025936    8.89250459075874    7.79483205174647
O         8.66562837012033    9.85192034592935    3.23129236674763
H         8.30540266266775    9.67544065432361    4.11842671395636
H         8.25126472258077    9.19969933051149    2.60907935300660
O         5.81649716731206   12.24803354203502    2.82436140553254
H         5.91517296023059   12.01353467176235    3.78226277166515
H         6.73526867371517   12.43495092784087    2.54704950529555
O        10.46142375228292    5.69452669399452    8.73704645045976
H         9.64291373337475    6.14134610998406    8.99546864774751
H        10.35925785067246    5.47361745663349    7.79985081455907
O        12.81300556379610    5.16936341819948    3.05811728968769
H        13.65617344400395    5.00796822046727    2.61190949250699
H        13.03067312120012    5.24687146063202    4.00683409132809
O         8.19534157854913    0.86535307331238    6.33748713066988
H         8.59626871627545    1.62118262366658    5.85270894692841
H         8.73783703103370    0.11083971533033    6.11076154322341
O         2.49018122783165    4.54897577354578   13.99937453480755
H         2.17283588698074    4.43417754847765   13.09562119653128
H         2.29384181835185    5.47118840979694   14.25360389655990
O         6.00064229154497   11.64552845093436    5.41796106116267
H         5.21766202466649   12.16801560316259    5.66962563356217
H         5.69235521333612   10.72430200250893    5.28014041483882
O         4.63141338107082    1.91371128097753    1.56271389320900
H         4.50330475447010    1.40450301609486    0.76325997950172
H         4.43188401567768    2.85274640624009    1.32442887424391
O         1.68574194044954    6.94403714909017    2.13289929662447
H         1.71127410693856    6.61350002879915    3.05977937862690
H         1.37544146352235    6.17826224405050    1.63000998475638
O         1.26975538615926    4.31725271445264    1.34951904093102
H         1.17418152738800    3.73646133070737    2.15084210040828
H         0.66865488366468    3.95765570796601    0.69807977904094
O         3.46797798503217    5.52609249468887    9.03663458948949
H         3.13732667692084    4.99121984263152    9.78627842212593
H         2.68363178601990    5.90115845269082    8.60155845391154
O         5.22874157255703    7.35833123109093    9.81071049232557
H         4.80851690898853    8.08654819732566   10.31718433937431
H         4.49802278952595    6.82887863296034    9.43574424886345
O        12.66018230790606   10.11712334428542   12.76722127176016
H        12.68512636487791   10.88391133265225   12.17180403828970
H        11.87359806281478   10.24313463545695   13.30351352390513
O        14.84491474750225   10.25908715010839    5.97936359143676
H        14.78301656826394   10.44785731969593    5.03158233408544
H        14.42229860427550    9.39195356699972    6.11015259739643
O         8.10231897817107    9.94587047993223    5.94327495810227
H         7.73958699700309   10.83319274576828    5.81860315156692
H         7.46642607990777    9.48217815450183    6.50433959827826
O         5.23928805602942    9.59947710408226    2.13093426259606
H         5.45302244147441   10.54367451328139    2.08423206124004
H         5.15018852304461    9.41950728153992    3.09462867028974
O         9.98301272517931    2.25574960717951   10.23235781737459
H         9.35157295727640    2.98807908949576   10.46170155739814
H        10.85958570531005    2.64589353971755   10.38498733767968
O         7.71778198402125   13.09771741353410   12.03369189919272
H         6.96748970028099   13.51314519429215   12.47072147756089
H         7.38625528863996   12.19596044611423   11.77458176220638
O         4.45355488711702    7.19519569645601   12.62776736901261
H         4.76912582992845    6.35333970654741   13.00634470988029
H         5.14615090928705    7.85791362319283   12.81920257761307
O        12.95751509116928    3.60209010399511    7.87419318165559
H        13.14871862214550    4.35300069857447    7.28048223485733
H        13.14660144116208    2.81421347550148    7.35584861264469
O        14.94850442729236    3.70388311728429    2.07858773872423
H        14.29175209157024    3.01288832093911    2.28382586685191
H        15.35363541359084    3.46222367355453    1.24613153676747
O         2.18765951770470   14.10705899950497   12.51169476885620
H         2.10729873985324   13.75227168116252   11.58872649359092
H         1.63948320757417   14.88927651092452   12.55449527963011
O        10.50727229169016    5.02925971273734   12.67476109739188
H        10.14443308507623    4.47646659347548   13.41728482746069
H        11.01208708883197    4.43702074103142   12.10682005941558
O         8.51143539176181    9.62022647249675    9.45057833129921
H         8.63075074996738   10.45113743224982    8.94354286818167
H         9.37728752191126    9.18043738215130    9.42080746372520
O         2.98575877350563   11.83681911100623    3.31649168034520
H         2.78639075767809   10.89250648003036    3.44334037838020
H         3.83424969048794   11.87199562393529    2.86022425343122
O         5.34355805072344    1.04296562039474    6.10895629345284
H         5.79822199194764    1.88299450199987    5.85310735507807
H         6.07620977390994    0.43510683631157    6.24252777195222
O         0.11855874418846    8.60518085612941   12.10406638772379
H         0.74678440258446    7.86314352025258   12.03666977780977
H         0.11120860039846    8.85230380167600   13.03929985946730
O         1.67601882703039    2.22264876640086    9.40201364253671
H         1.39671162142687    1.36559961505806    9.72070598325932
H         2.58123074369879    2.10548531791891    9.05793349254247
O         1.71046555167388   10.51279706121391   11.12639921718443
H         1.04749333718329    9.83452624371774   11.37955028165073
H         2.56264687171089   10.03138667546044   10.97684667219713
O         8.96922864496221   11.88132043244156    8.08712577743573
H         8.94605805996588   12.04146738867833    7.12911806186739
H         9.91477977490529   11.92529424517827    8.34792422728024
O         0.97786382394544    2.69164199623518    3.39692352123672
H         0.61889509203766    3.12727743133113    4.19693082021437
H         1.75842119446105    2.19619159824291    3.68033478813791
O         4.39930176645169    2.83081926171275   11.86834570693691
H         5.00040082532939    3.58590262118042   11.70499746327563
H         4.69758169468830    2.42735181605383   12.68343061619197
O         9.28798408501808    1.19390396790500   12.72150141568653
H         8.35008734250474    1.40764462826298   12.75939468376457
H         9.57049592679249    1.39709439371509   11.81562216028129
O        10.04485219288112    7.38644863948764   11.27115788794024
H        10.00420810836161    6.63761022135361   11.88825265477717
H        10.99854681789409    7.60375423578916   11.18415675504642
O         7.45234244045093    7.48922468841785    4.48697375799662
H         6.84727598092816    6.75307489353795    4.30159141335071
H         7.86630153498483    7.31333530295497    5.36390514276109
O         4.29057696370985    7.04324781434867    1.55659165394688
H         3.32380498335517    7.04954795058867    1.74381509107050
H         4.54938239465720    7.97499006184118    1.53379287517928
O        11.14674819204582   12.42272376722388    1.96676852921028
H        11.31855551078316   12.30657271335833    2.91253491702146
H        10.18582592081594   12.53893848122762    1.90935891717738
O        12.83140823771812    6.98741328481184    8.81142363260877
H        12.03687658358858    6.41709614162742    8.80625295514082
H        13.02563445790649    7.20004750525222    9.73919122458502
O         7.45187001274423    8.11963078137930    1.70074706940165
H         6.61282129009046    8.62384129277280    1.68386611986395
H         7.35323082479468    7.46259082022874    2.39745496803586
O        14.12655709186457   11.32522079189780    3.45593990661307
H        13.25657838755370   11.58088094142857    3.81326523842629
H        14.62019628253198   12.13519382080365    3.33043341596436
O         2.57471610069953    9.17618127434842    3.71087339964475
H         2.14146624732562    8.62359633863202    3.05304001551312
H         2.80985132452791    8.61193568213324    4.45375384861243
O        11.56748931157169   11.59171821109879    4.59840652525735
H        12.10267091036157   11.74892716857817    5.43540832934690
H        11.47176674779459   10.63349097125064    4.45405817420659
O         4.64790412878634   10.97542661899875   13.11844609358405
H         4.93967800663566   11.86793082166161   12.84868762279661
H         3.74699492104576   11.09429735587386   13.46850291909572
O         2.96409538695048   11.69553636283521    7.69580316994889
H         2.40228524834824   12.23014906919593    8.26985336942862
H         3.16338831512192   12.23646885579278    6.90977308823149
O         3.69756245807405   13.07244602260658    5.53791547136766
H         4.07284396881571   13.86747475063915    5.11999086995704
H         3.29757410825841   12.58375021972172    4.77620743212956
O         7.66952057253925    1.17191641673895    9.00923160002287
H         8.52248108007739    1.23429536573119    9.44953480790829
H         7.85583882326013    1.07115958484177    8.05646895596236
O         5.09409449277911    4.95458640636096   14.05354794312174
H         5.27217992345119    5.24759385391797   14.94739310340867
H         4.14456012539727    4.66670389650541   14.04172319740856
O         9.97318632609230   11.85369371114173   12.88215312899652
H         9.21888219353004   12.43337511106507   12.67276617301565
H         9.62873159122900   10.94603381505148   12.77364348459611
O         2.43534309792986    7.20871678359110   14.50205677348415
H         3.14074413024502    7.42210716733140   13.86546894083099
H         1.85662845115765    7.97972194247410   14.56124141036591
O        12.13821486534323    2.64768905506323    5.35788164446284
H        11.15917769669875    2.65542451625119    5.31864977208668
H        12.41151283771632    3.57162857203968    5.37484084333436
O         2.09802887658306    6.88598423433961   11.37781374356476
H         2.06899873151718    5.91748024365074   11.32886341527294
H         2.97808305861962    7.11108886159867   11.73598393036885
O        11.10914676512618    9.05697542714859    3.52643641949340
H        10.19894344991980    9.39008470922422    3.30713428482429
H        11.67122421930234    9.31236255499968    2.74950443696094
O        10.17174474117473    3.05746521346736    7.62147929031469
H        11.10765926348006    3.30068649707486    7.59212132610920
H        10.03509226345737    2.63513392668962    8.48539419386756
O         5.81458348879447    5.01691004785592   11.17685055829633
H         5.42109634851222    5.83693632128610   10.84380712008001
H         6.08541190244976    4.49735824245822   10.39047776758455
O         4.76348034103906   14.66520767101474    3.61141018398560
H         5.18825035658958   13.86413500101716    3.24137247502148
H         4.06313670279461   14.89745880891834    3.00016118206382
O        11.98019021150097    4.12746518694132   10.36160982249537
H        11.34500812915623    4.72076654872919    9.90960747436701
H        12.57931009879454    3.86163884328624    9.64723000882389
O         4.13502703743047    9.55268955462157   10.87120076958346
H         4.49723175507973   10.08129920608024   10.12474902350212
H         4.48200936230751    9.97001375430415   11.68638384821869
O        13.04203686220671    5.38270913335574    5.79002832836524
H        12.07182272136417    5.58781484150367    5.90088266456548
H        13.47085800699445    6.24593139045737    5.91273736826827
O         8.34384605508702    4.72621531491335    3.28451885689513
H         8.95523750267648    5.48164698538604    3.24625651559752
H         7.43202449062385    5.06667553118640    3.26949157108495
O         7.37783725723478   13.67459672708087    9.38017638971059
H         7.64957044653071   13.58486034775317   10.31207367340142
H         7.88859446103594   13.01077083758550    8.88246542417216
O         3.66961263946023    7.55676151969027    5.96908985050342
H         3.43736227691617    8.06133676755259    6.78735382558133
H         4.28647161545705    6.85955262700970    6.26339324106264
O        10.12166551613086    1.28402309418447    2.55040679097310
H         9.68504099406236    1.78779071364761    1.85225719813275
H        11.06392963921168    1.52940327689649    2.50256398765549
O        10.50869425485155    8.71236336930616    6.09228729155496
H        10.76742733300958    8.76340596389419    5.15525571489937
H         9.61614681174993    9.11009584418550    6.11810003475250
O         6.49111014310809    3.24607036019927    5.18895580253453
H         6.78447707048232    2.76927518557361    4.37638158499792
H         5.67373956333235    3.72035050806491    4.95754507823473
O         2.03825948509012    5.96938614066577    4.55499946000439
H         2.45706216199742    6.56859223190271    5.20451181412202
H         2.72354039901573    5.30069609053408    4.35901852743465
O        12.59493831103312    2.42186490678131    2.74315087239856
H        12.56353231057191    2.28546930382720    3.71612408254102
H        12.36562935437275    3.36128808158888    2.63938882355708
O        13.01776387943813   12.08766976201711    6.64309558749267
H        12.56428397523116   11.92689510704903    7.49098944874584
H        13.77340144029438   11.46310584979780    6.57742605111594
O         2.03620110386156   11.54401336484086   13.53336024386850
H         2.00186207223800   12.50704612795823   13.43405821063775
H         1.87731603185139   11.19093211873502   12.61941897793783
O         7.06340313992527    3.21536508610583   13.11821464107581
H         7.39835025926593    3.57650868818067   12.27929996425279
H         6.41405439131271    3.86105093658598   13.43832581926457
O         9.27560185297952   12.68223996023678    5.44781425113162
H         9.50216003696092   13.58846742290706    5.65737942153611
H        10.10430688390282   12.24808898142363    5.13792899372561
O         2.19684599848407   12.96207938541121   10.11323118261055
H         3.15851834643131   13.01852928167296    9.97350335470206
H         1.99509717351168   12.05248941847208   10.40557656790361
O        12.01024149530719   12.39127288921047   11.35180296050589
H        12.30223911904387   13.28047836256339   11.54732954161390
H        11.19044449560593   12.23218555140126   11.89954720285891
O         5.80514425483025    5.74981365111679    3.31530390945347
H         5.13852689331799    5.19391523749416    3.74758648105418
H         5.31042975333034    6.24994577887103    2.62953469291411
O         4.79532392105219   13.71560246928059    9.65395585014266
H         5.76152881067346   13.56650313407541    9.45457176349492
H         4.59046037769571   14.55940760536227    9.25097436955847
O         7.72254976610673    6.42728453815774   12.66859826235093
H         7.03861458261816    5.87862053586557   12.25300779853543
H         7.26301187192727    7.14062198482427   13.11583587742298
O         9.47208555111569    2.64945624790100    4.75844877976283
H         9.62836801303626    2.05156294483379    3.99183660195015
H         9.03364152065725    3.43026146812669    4.38450260665012
O         0.39257047193879    4.12552407577998    5.64449763480079
H         1.11685216839014    3.71623027477512    6.14736646586601
H         0.81180250472043    4.88645681002037    5.19687840760984
O         9.05404944952614    9.30541082483914   12.75372989240634
H         9.12516207435591    8.89624092561694   13.61703599897929
H         9.38268490162406    8.62519509538060   12.11172988971653
O         9.46004769959345    3.36115344837655   14.38012992636177
H         9.70902455531044    2.48962485204492   14.02778515549524
H         8.51558595040033    3.42951831012356   14.13196868141126
O        12.47796132276556   10.07972777604907    1.55021669713710
H        11.96343899891976   10.90633550333449    1.45213613094562
H        13.30258884685811   10.34602749476998    1.97887357996494
O         2.83733459201188    3.76381187520994    6.78679534379398
H         3.31087838536511    3.11767545818250    7.36180499222549
H         2.72304817696677    4.56849330286415    7.30286945602310
O        12.66717941641782    7.85143358468032   11.31800404061198
H        13.03393734491884    7.10968145660025   11.84379962253257
H        12.77909289630793    8.66676267314708   11.84449867367720
O         3.94818498069396    4.33568016500660    0.78537870091590
H         2.98744278779553    4.35448566123011    0.95080375897254
H         4.25696318713109    5.23858504822875    0.93673643842974
O         8.51683112902985    4.27413536701301   10.97167249617325
H         8.22390318720857    5.00520556481332   10.39245623683518
H         9.05483867748363    4.70181941966414   11.66335568195586
O         6.83732148064664   10.80130421748977   11.16172479874154
H         7.56084395501868   10.28375584182542   10.76920314446554
H         6.28753559206999   11.06755866297137   10.40830917080885
O         6.93709867560079    1.84564461041465    3.01662397824058
H         6.11640455894568    1.82314100999875    2.50000478698850
H         7.62860992578149    2.11205626868913    2.39709233634340
O         6.37904349795212    8.90944479896169   13.35923946955019
H         5.81279885096691    9.69413931868490   13.43986791608280
H         7.16259471609107    9.22717500757554   12.88108449670923
O         8.60532128432225    3.16854996277481    1.16094102980680
H         8.25387247441639    3.62132207205375    0.39509944194075
H         8.57431422133631    3.81206674478060    1.90904480460117
O        11.51064392240125   11.59722465988963    8.82635343128993
H        11.73954121772539   11.91112254157284    9.71937821997857
H        11.41698091297966   10.62117157696317    8.88934835589180
O         5.28312760144332    5.64066634210482    6.93919640681301
H         4.82364633980936    5.38650314357846    7.75073042351471
H         6.17679560428346    5.29381642720440    6.99693296669282
O         8.31919296891787    7.03897825542503    6.90949150553385
H         8.21260908293288    6.07984506619449    7.03863699759813
H         7.61589310238227    7.48754833164919    7.40356392620087
O         5.27637396769769   10.99458964168036    8.92428053736645
H         4.53170199461335   11.39487188557892    8.44282743399968
H         5.64867135644267   10.30316822869457    8.34725601367849
O        13.31601235345083    8.02067634992704    6.39818649897442
H        12.41289543735562    8.32557506193664    6.24461757666081
H        13.33235617653010    7.72011246417162    7.32580921585123
O         6.38534733702416    3.48264633222414    9.06477128062625
H         6.95365756637682    3.88340613793972    8.37426017568819
H         6.81652277508330    2.61668577352958    9.24086383155531
O         7.93702717489340    4.38103950090775    7.08100643330620
H         7.54003666947002    3.93499641972947    6.30399846150639
H         8.79348419725287    3.92014312796055    7.22304100431962
O         4.00238629478524    4.11776327820695    4.51269852673261
H         3.67300701687445    4.06073252791885    5.44837553120592
H         3.77394775500477    3.23312608105212    4.15195311684064
O         5.43622561384463    9.15072132034037    4.75939567202610
H         6.25052969494062    8.59658670316863    4.69327704510913
H         4.76811204770426    8.60155644051115    5.21300338106161
O        13.30787866873929    5.52179994057953   12.43615473002695
H        13.06017332461954    4.97457515319331   11.67265610641509
H        12.57927647831533    5.43675127112998   13.06210038216412
O        10.52304764269270    5.94603510802995    5.94778971226873
H        10.33557416947338    5.93944194441950    4.98714560887489
H        10.31660572280320    6.86104791667629    6.21476912294341
O         6.51133793853021    8.78172135785354    7.95407173147636
H         7.24252419835620    9.03964607135066    8.56451766127455
H         5.90235054110233    8.23751771495638    8.49423844487500
O         8.48093216825063   12.44797541175944    2.75204865055256
H         8.55334001869608   11.46896954509467    2.80541731052525
H         8.59124423103732   12.73340333910566    3.67285995041270
