22
Energy:   -384.08531240
Na   0.26520498   0.07314227  -0.05116020
O    0.39843950   2.33964669   0.23908483
H    0.26061922   2.85979590  -0.55254780
H    0.67242302   2.97591807   0.89963279
O   -0.02379249   3.66271245  -2.12173164
H   -0.88104919   4.00872969  -2.36995507
H    0.60328736   4.26153455  -2.52721257
O    0.53461154   0.19502714  -2.35535981
H    0.42262657  -0.50902409  -2.99411099
H    0.49068564   0.99854390  -2.87368710
C   -4.12124570  -2.16335687   1.07108023
H   -4.93275062  -1.71220365   0.53927133
H   -4.26345792  -2.02556340   2.12259710
H   -4.08765712  -3.20968683   0.84980094
C   -2.79694602  -1.50506572   0.64156524
N   -1.81094472  -1.01493804   0.32177180
C    3.38559214  -2.94551367   2.53480681
H    3.55206732  -2.56962289   3.52267943
H    4.31980276  -3.01614370   2.01793061
H    2.93602716  -3.91473960   2.59304344
C    2.44846321  -1.98989844   1.77310548
N    1.75072814  -1.27839946   1.20598422
