22
Energy:   -370.84144863
Na  -0.65281545  -1.69788606  -0.86456286
O    0.81664928   0.22813484   2.10687613
H    1.09963539   0.01419004   2.99590837
H    0.97324248   1.16888571   2.02503354
O   -1.54226810  -0.57659951   0.92478953
H   -0.83779002  -0.21797907   1.46454306
H   -2.34622110  -0.29187495   1.35932762
O    1.46929480  -1.17369653  -0.17748867
H    2.40313167  -1.23349895  -0.37899354
H    1.43084529  -0.66778706   0.63418189
C    1.87741862   5.58714824   2.10137844
H    2.61623190   5.84708674   1.37234683
H    2.25926299   5.78280450   3.08158893
H    0.99541771   6.17079871   1.93912673
C    1.53393070   4.09140933   1.97338958
N    1.27818833   2.97776372   1.87809605
C   -2.58026773  -4.40381553  -4.66067341
H   -3.17311999  -3.77213875  -5.28869477
H   -3.19212457  -5.18585492  -4.26199473
H   -1.78422874  -4.83094223  -5.23407014
C   -1.99208720  -3.57266114  -3.50532669
N   -1.55416007  -2.95382891  -2.64511854
