22
Energy:   -371.10693009
Na   0.00374611   0.05686531   0.22551778
O   -0.36374326  -1.71174642  -1.54242467
H   -1.06682907  -2.36072668  -1.56938406
H    0.30653122  -2.05950127  -2.13066827
O   -0.03580262   0.43591721   2.49142157
H   -0.57548335   0.94532993   3.09596706
H    0.55235367  -0.06383144   3.05759762
O    0.51318674   1.78041807  -1.35434096
H    1.31676414   2.16433346  -1.00347890
H    0.00294709   2.53008511  -1.66075030
C   -4.97655570   0.73997145  -0.25882849
H   -5.20570435   1.77913060  -0.14684934
H   -5.67404974   0.15798328   0.30658369
H   -5.04152779   0.46973613  -1.29210028
C   -3.54936914   0.47092335   0.25337425
N   -2.48676388   0.27060481   0.63473247
C    4.83961522  -1.21246900   0.13311255
H    5.48961358  -0.82324881   0.88869839
H    5.20025496  -0.92242607  -0.83162222
H    4.81558349  -2.28018560   0.19870841
C    3.41963706  -0.65338534   0.33972203
N    2.36239877  -0.23712215   0.49355218
