22
Energy:   -382.20365580
Na  -0.68508983   0.26662542  -0.57964351
O   -0.72815153  -0.47181466  -2.78327473
H   -0.47448120  -1.34279213  -3.08869485
H   -1.01977264  -0.01610826  -3.57290797
O    0.03677162  -1.48648166   0.71119771
H   -0.23813439  -2.20717517   1.27799520
H    0.98440536  -1.43205749   0.83472967
O    0.74124907   2.06723034  -0.22899936
H    1.69566082   2.06358794  -0.30191562
H    0.52735230   2.94838781   0.07766254
C   -5.50805423   1.57623884   0.25074074
H   -5.72276184   1.45753840   1.29223535
H   -6.12522504   0.91295434  -0.31851575
H   -5.70592199   2.58640240  -0.04135006
C   -4.02598687   1.24783164  -0.00853721
N   -2.92252036   1.00331755  -0.20158142
C    5.31242412  -1.66693316   1.65203770
H    6.00075735  -0.94627695   1.26248389
H    5.56478993  -2.63821797   1.28080139
H    5.36484608  -1.66887129   2.72075061
C    3.88306973  -1.30342521   1.20885829
N    2.81885041  -1.03277702   0.87889107
