22
Energy:   -369.72814502
Na  -1.33945477   1.73834704  -0.79540871
O   -0.55953416   1.54640242   1.37500989
H    0.34165505   1.27458456   1.54880545
H   -0.92277339   1.73979421   2.23923713
O   -0.84740399   3.16606277  -2.60648987
H   -1.19865504   2.95499791  -3.47153679
H   -0.29815263   3.93639166  -2.75191403
O   -3.58085018   1.23864243  -1.18868901
H   -4.43923943   1.65092393  -1.28576481
H   -3.76527976   0.29941436  -1.18042983
C    0.82719350  -2.68232894  -1.08990445
H    0.65516600  -3.30536034  -1.94262867
H    0.48365304  -3.18174073  -0.20816361
H    1.87428497  -2.48097497  -1.00071294
C    0.06219564  -1.35664667  -1.26003608
N   -0.50738005  -0.36961596  -1.38670681
C    3.37473019  -2.34468598   3.14816880
H    2.88313131  -3.27256827   3.35375374
H    3.70028875  -1.90240841   4.06648316
H    4.22099635  -2.52143725   2.51769939
C    2.39571176  -1.39138677   2.43799732
N    1.66678803  -0.68161218   1.90924238
