22
Energy:   -372.82648090
Na  -0.17246662  -0.18531815   0.77043376
O    0.61624387  -2.16134288   1.66113330
H    0.33824478  -3.06417598   1.81553785
H    1.39692324  -2.05434992   2.20457057
O    3.09994752  -1.46463585   2.86640819
H    3.48713189  -1.51197134   3.74052458
H    3.76409330  -1.84118408   2.28904032
O    1.76182774   0.73377958   1.68833706
H    2.29795997   1.51998232   1.58499619
H    2.30942428   0.13490350   2.19599573
C   -4.63675258  -0.24812339  -1.51500665
H   -4.43674653  -0.60172146  -2.50488854
H   -5.21875612   0.64822550  -1.56725261
H   -5.17884243  -0.99424610  -0.97247684
C   -3.30675525   0.04458061  -0.79595765
N   -2.31651178   0.26251205  -0.26059299
C   -0.01798145   2.49362062  -3.74884364
H    0.79795919   3.13002897  -4.02110358
H   -0.92818459   3.05602447  -3.76029989
H   -0.08888002   1.68607628  -4.44723080
C    0.21972746   1.93048637  -2.33534645
N    0.39671255   1.51120733  -1.28293355
