22
Energy:   -371.74303225
Na  -0.35137462  -1.22179493  -0.32741944
O   -2.49345048  -2.00366019   0.21923930
H   -3.08854680  -2.47072816  -0.36722444
H   -3.06975897  -1.54764544   0.83255075
O   -0.27381584  -1.31672879  -2.73149921
H    0.57837629  -1.38374325  -3.16220731
H   -0.90214982  -1.25506205  -3.45096114
O    1.12529774  -3.13644449   0.22722745
H    1.99836609  -3.06723141   0.61348262
H    0.78233850  -3.96719416   0.55656890
C    3.33006943   1.69775258   1.89687323
H    3.96617901   1.12505117   2.53896190
H    2.92418644   2.52429581   2.44183597
H    3.89710397   2.06233625   1.06594022
C    2.18260731   0.80768062   1.38432803
N    1.32826961   0.14498158   1.00271483
C   -1.70719822   3.76896240   0.06885445
H   -0.73490479   4.18398502  -0.09637841
H   -1.96299933   3.86071952   1.10376774
H   -2.42535050   4.29578146  -0.52411948
C   -1.70480911   2.28135013  -0.32939678
N   -1.70303030   1.17375518  -0.62591292
