22
Energy:   -384.08129248
Na  -0.23005122  -0.12131226   0.07583789
O    0.67908494  -1.50890545  -1.53121480
H    0.31316917  -1.46581846  -2.41466317
H    1.35846183  -2.18102647  -1.58536469
O   -1.58791646   0.82769901  -1.60594110
H   -1.36674666   0.67233542  -2.52418830
H   -2.26603412   1.50270938  -1.63331437
O   -0.49148501  -1.13255050  -4.03564427
H   -1.23608192  -1.48993490  -4.51946622
H    0.20439138  -1.05589865  -4.68841712
C   -1.99461710  -1.91820075   4.47372381
H   -2.23095071  -2.95801531   4.38522352
H   -2.87389239  -1.37488763   4.75046356
H   -1.24282630  -1.78586624   5.22352195
C   -1.47099006  -1.39407170   3.12364845
N   -1.08112593  -1.00383379   2.11845599
C    3.16238646   3.42152434   1.45854180
H    3.17257426   4.17500084   0.69889086
H    4.14270252   3.00515338   1.56108320
H    2.86060035   3.85655197   2.38836715
C    2.17114597   2.31022777   1.06603418
N    1.43312237   1.48281696   0.77379441
