22
Energy:   -384.60812706
Na  -0.17503745  -0.10126348  -0.04746355
O    0.10594424   0.42827348   2.16672073
H   -0.68558320   0.66577412   2.64974206
H    0.77488883   0.31667320   2.84221341
O   -2.28431666   1.12245597   3.35172017
H   -2.77761475   0.57982288   3.96689345
H   -2.33088773   2.00498538   3.71942224
O   -2.51874770   0.33351856   0.07329622
H   -3.35142605   0.28883230  -0.39668437
H   -2.74687464   0.68840145   0.93250986
C    2.50248564   3.07570229  -2.90791014
H    1.93656091   3.98115240  -2.97711624
H    2.58257454   2.63017013  -3.87743887
H    3.48087248   3.29431342  -2.53392155
C    1.79357914   2.09912593  -1.95117080
N    1.26576603   1.37202044  -1.23883486
C    1.39527110  -4.59227759  -1.79150430
H    1.01077247  -5.37367743  -1.16983294
H    2.46483963  -4.61141707  -1.76792607
H    1.05801724  -4.73751020  -2.79652490
C    0.89467512  -3.23107059  -1.27370206
N    0.52195866  -2.21759010  -0.88817476
