91
Energy:   -776.30103409
C   -0.51801682   5.79626382  -5.37444668
H    0.12313149   6.65135494  -5.32298607
H   -1.53935189   6.11509713  -5.36353373
H   -0.32219640   5.25750246  -6.27793417
C   -0.25266666   4.88210218  -4.16386922
N   -0.05510141   4.20146728  -3.26253928
C    0.93791843   4.33974561   2.91683639
H    1.14916090   5.30436581   3.32888574
H    1.78514015   3.70050419   3.05279544
H    0.08935049   3.91775250   3.41357915
C    0.63582419   4.47879825   1.41317305
N    0.41090130   4.58232927   0.29362735
C    0.49495947  -1.39045074   0.07690247
H    1.38506576  -1.98419813   0.06824116
H    0.75756082  -0.35359244   0.04750052
H   -0.10279373  -1.63134740  -0.77723979
C   -0.30376148  -1.68148864   1.36101374
N   -0.89844554  -1.89817959   2.31709296
C    3.44308416  -3.42910965  -2.49074148
H    3.41541804  -4.46436398  -2.75978285
H    3.57912297  -3.33892386  -1.43326380
H    4.25532287  -2.95063033  -2.99692811
C    2.11808958  -2.75756879  -2.89697077
N    1.13157089  -2.25757610  -3.19942694
C    4.89572483  -3.74080862   1.32597376
H    5.35550390  -3.08141905   0.61978061
H    4.51897351  -4.60283417   0.81619979
H    5.61898036  -4.04453340   2.05367685
C    3.73527754  -3.01202638   2.02871023
N    2.87127180  -2.46941487   2.55192948
C   -4.93865943   2.68323984  -0.06806425
H   -5.19266657   1.75789230  -0.54146945
H   -5.74744599   3.37482162  -0.17976941
H   -4.75590894   2.51319399   0.97240957
C   -3.67205284   3.26442774  -0.72344838
N   -2.72900665   3.69714854  -1.21141166
C   -4.06784893  -2.86970131   1.19415287
H   -3.13103341  -3.25752776   1.53601179
H   -4.49944841  -3.54940659   0.48943896
H   -4.72973136  -2.75084987   2.02642992
C   -3.84236602  -1.50430842   0.51853484
N   -3.67448375  -0.48771136   0.01550651
C   -2.30890949  -1.34487386  -3.13393170
H   -1.58373444  -1.97883627  -3.59988556
H   -3.12730307  -1.18604209  -3.80468017
H   -2.66636782  -1.80963271  -2.23887760
C   -1.66027057   0.00786679  -2.78613828
N   -1.17732940   1.01504370  -2.52719027
C   -2.39360198   1.17967092   2.95321058
H   -3.36924011   0.84411700   2.66960171
H   -2.47962957   2.06701075   3.54492536
H   -1.90574953   0.41678215   3.52321040
C   -1.56773837   1.48350180   1.68939252
N   -0.95284538   1.70971770   0.74842253
C    3.43632836   0.95562768   1.41674677
H    3.49262084   0.45304270   2.35968880
H    2.43857219   1.30884886   1.25985027
H    4.11281340   1.78463703   1.41349364
C    3.81770022  -0.02255561   0.29010887
N    4.10164890  -0.75085753  -0.54872426
C   -2.48373079   6.78767491   0.84985610
H   -3.44816137   7.15460540   0.56677333
H   -1.91616937   6.56164766  -0.02859982
H   -1.97262276   7.53296709   1.42274985
C   -2.64814965   5.51221370   1.69706631
N   -2.77056697   4.56257485   2.32785282
C    1.11681507  -1.24680229   5.13733531
H    2.13401480  -1.56391391   5.23554484
H    0.55765589  -1.99748906   4.61896335
H    0.69507810  -1.09522610   6.10896368
C    1.06456494   0.07187510   4.34363520
N    1.02566235   1.05369035   3.75268939
C   -0.42309488  -5.39146566  -2.79777617
H    0.52905743  -5.71857990  -2.43541939
H   -0.28304667  -4.76724989  -3.65547091
H   -1.01320622  -6.24206601  -3.06823270
C   -1.14572927  -4.59483968  -1.69560259
N   -1.68376342  -4.00171543  -0.87498426
C    0.21074731  -5.11274941   2.15265937
H   -0.79362903  -4.86773901   1.87680025
H    0.55484953  -4.42360233   2.89533631
H    0.23974254  -6.10673107   2.54770219
C    1.11931861  -5.02664718   0.91222211
N    1.79579124  -4.96254015  -0.01133982
C    2.89886411   0.73338920  -3.61891919
H    3.63587523   0.03887718  -3.27342270
H    3.36593346   1.47051584  -4.23810384
H    2.15489437   0.21212129  -4.18432868
C    2.23664742   1.42229337  -2.41124369
N    1.74359699   1.93521383  -1.51207439
Na  -0.43857037   2.92659225  -1.26443295
