91
Energy:   -777.18812798
C    0.23255355   5.42456768  -3.75953785
H    1.30210996   5.42170473  -3.72886099
H   -0.14090853   6.18676195  -3.10801267
H   -0.09506049   5.61817701  -4.75957962
C   -0.29778355   4.05304304  -3.30208541
N   -0.69264363   3.03188061  -2.96149128
C    3.09788653   6.36130471   1.32157534
H    2.48022814   6.36359931   2.19529900
H    3.42475194   7.35862744   1.11323552
H    3.94894198   5.73449931   1.48806467
C    2.29152596   5.82473329   0.12429770
N    1.69115387   5.42523148  -0.76712992
C    0.44334543  -1.68019785   0.38352363
H    1.45354742  -1.98689619   0.55767370
H    0.15737559  -0.95924193   1.12064160
H    0.36582461  -1.24433207  -0.59059681
C   -0.48743711  -2.90374218   0.47398426
N   -1.18044703  -3.81472656   0.54133632
C    2.33167481  -4.56788993  -1.27423285
H    1.79931898  -4.98807814  -0.44662224
H    3.02590877  -3.83610444  -0.91726184
H    2.86231801  -5.34252493  -1.78731911
C    1.33496002  -3.90146057  -2.24068592
N    0.59286056  -3.40527362  -2.96025416
C    4.55956111  -1.74171194   1.67240332
H    5.36615814  -1.21107922   1.21117634
H    4.12142704  -2.41188116   0.96260699
H    4.93034674  -2.29888004   2.50725709
C    3.49559389  -0.73897634   2.15623704
N    2.70342193   0.00760589   2.51647323
C   -6.15350911   0.27284488  -1.89737049
H   -6.25424369  -0.31690251  -2.78447293
H   -6.97000689   0.96130353  -1.83213901
H   -6.15806417  -0.36806890  -1.04056954
C   -4.82682193   1.05321258  -1.94764366
N   -3.83904303   1.63423180  -1.98507431
C   -3.70681603  -1.69614431   1.86760597
H   -3.00009668  -2.40108718   2.25296747
H   -4.34948997  -2.18344533   1.16446514
H   -4.29201131  -1.30176548   2.67191369
C   -2.95674846  -0.54781302   1.16736752
N   -2.39828907   0.30717183   0.64600817
C   -2.04218745  -1.71966557  -4.60953693
H   -1.83921647  -1.19550702  -5.52000976
H   -3.09464486  -1.89302156  -4.52480096
H   -1.52564421  -2.65671184  -4.61468084
C   -1.56299728  -0.87591136  -3.41368760
N   -1.20621842  -0.24769800  -2.52332342
C   -0.33727865   1.72212367   3.08084684
H   -1.35142343   1.91763773   2.80123142
H   -0.29683843   1.46381614   4.11841173
H    0.04384561   0.91102127   2.49624759
C    0.51559554   2.97988271   2.83135167
N    1.15059914   3.91634148   2.64559118
C    3.23925316   2.33502198   0.10477436
H    3.52638220   3.11852303  -0.56498918
H    3.88906138   1.49551350  -0.02891883
H    3.31064960   2.68420790   1.11367021
C    1.78800379   1.91306339  -0.19090492
N    0.70748268   1.59889604  -0.41105158
C   -1.20085489   6.14612554   1.08132123
H   -2.09585650   6.62773713   1.41586955
H   -0.75530980   6.72486858   0.29937164
H   -0.51461278   6.06173922   1.89792995
C   -1.54164975   4.74145824   0.54993753
N   -1.79538701   3.69561958   0.15429821
C    1.53376627  -1.68200315   5.18052247
H    1.92203480  -0.68552221   5.21477847
H    2.26263592  -2.33405730   4.74638711
H    1.30725651  -2.01085379   6.17322065
C    0.25192487  -1.70442118   4.32730500
N   -0.70246432  -1.72111243   3.69204582
C   -2.93082674  -4.72730490  -2.07243024
H   -1.91694312  -4.58847020  -2.38494441
H   -3.47311101  -5.24078910  -2.83869446
H   -2.95064294  -5.30594581  -1.17260743
C   -3.58105792  -3.35527689  -1.81486755
N   -4.06518459  -2.33373966  -1.62310042
C    0.07420451  -5.42670572   3.27131413
H   -0.27585017  -6.09075177   2.50881511
H   -0.70212759  -4.73609547   3.52678439
H    0.34849836  -5.99147626   4.13774140
C    1.30058355  -4.65208953   2.75404802
N    2.21367848  -4.07535258   2.36891989
C    2.04587226  -0.10098868  -3.60562786
H    2.77251494   0.25420678  -4.30614680
H    1.39121011   0.70044253  -3.33355327
H    1.47727043  -0.89046937  -4.05094941
C    2.76063696  -0.62940537  -2.34805590
N    3.29281177  -1.02283561  -1.41173642
Na  -1.58081881   1.69365864  -1.15329044
