91
Energy:   -778.67576896
C    1.74519402   5.99454726  -3.37575979
H    1.35143140   6.50635998  -2.52258987
H    1.27909300   6.36930337  -4.26300654
H    2.80144466   6.15588312  -3.43236734
C    1.46254305   4.48634519  -3.24524185
N    1.25209655   3.36342019  -3.14806532
C   -0.44589235   4.40042982   2.58013936
H    0.50671404   4.19245068   3.02080468
H   -1.15663755   3.66986932   2.90574913
H   -0.77257534   5.37424396   2.87991149
C   -0.32381217   4.34966079   1.04582552
N   -0.23291793   4.31186095  -0.09654087
C    0.85549542  -1.50343595   0.67449373
H    1.41446556  -0.60174556   0.81380279
H    0.08021182  -1.33514210  -0.04349763
H    1.50661796  -2.27584295   0.32189489
C    0.22969429  -1.93172546   2.01484482
N   -0.23624309  -2.25060647   3.01279713
C    2.61061927  -4.83874893  -2.04855281
H    2.43545313  -5.64223548  -1.36398991
H    3.43390087  -4.24899123  -1.70316556
H    2.83793572  -5.23700164  -3.01531085
C    1.35064948  -3.95795139  -2.13950239
N    0.41254470  -3.30215759  -2.20721848
C    5.09201804  -3.33875531   1.04549333
H    5.53724936  -2.75713938   0.26549835
H    4.45691910  -4.08501401   0.61578833
H    5.86034791  -3.81222126   1.62029617
C    4.25946332  -2.42035412   1.95927225
N    3.63958849  -1.73656268   2.63962218
C   -3.58189870   2.45099771  -4.80379359
H   -3.03071236   1.89646431  -5.53426366
H   -4.05000308   3.29130485  -5.27247396
H   -4.33060030   1.82227372  -4.36899345
C   -2.62390229   2.94459055  -3.70369860
N   -1.91063042   3.31209285  -2.88462788
C   -5.44294750   0.31337347   0.66588763
H   -4.99078024  -0.60978417   0.96291443
H   -6.49398815   0.16764663   0.52813301
H   -5.28147060   1.05007762   1.42489442
C   -4.81342241   0.79146569  -0.65574999
N   -4.34471237   1.14742707  -1.63976927
C   -2.55605454  -1.61206726  -3.02354048
H   -2.84702522  -1.62958038  -4.05306927
H   -3.40777306  -1.38776974  -2.41595076
H   -2.16299654  -2.56825899  -2.74767477
C   -1.47714405  -0.53347900  -2.81330364
N   -0.67384615   0.26957898  -2.65677276
C   -2.34205978   0.43004913   2.69161421
H   -3.11421007   1.10309072   3.00096697
H   -1.56613027   0.41463787   3.42822468
H   -2.74906823  -0.55339253   2.58167923
C   -1.76171008   0.89897474   1.34443085
N   -1.32961335   1.24811117   0.34139161
C    4.09821045   1.35150868   1.04667718
H    4.65826268   0.53540531   0.64020829
H    3.78986478   1.11142576   2.04276063
H    4.70928175   2.22967609   1.06436761
C    2.85645305   1.60772325   0.17261045
N    1.93190822   1.79848665  -0.47817197
C   -4.06817372   4.73502020  -0.68880214
H   -4.44705847   4.05216625  -1.42027804
H   -3.12488401   5.12032668  -1.01536382
H   -4.75897545   5.54239656  -0.56296308
C   -3.88625652   4.00124644   0.65286928
N   -3.75081089   3.45491851   1.65180463
C    1.82676803  -0.21425652   5.09989419
H    2.86339355  -0.46550805   5.01515702
H    1.23879224  -1.10726936   5.05852231
H    1.65527527   0.28283977   6.03176575
C    1.42786849   0.71718338   3.94019644
N    1.13086966   1.41068272   3.07674875
C   -1.71719979  -4.57846824   0.53985885
H   -1.47042734  -4.73824282   1.56868129
H   -0.82398468  -4.60102233  -0.04883223
H   -2.38210295  -5.34866044   0.20878959
C   -2.40096739  -3.20754780   0.38289065
N   -2.91006345  -2.18683522   0.26602070
C    1.81808569  -4.81260502   3.94535502
H    0.81277199  -4.70100705   4.29433988
H    2.39879515  -3.96886170   4.25482688
H    2.24075750  -5.70611022   4.35510629
C    1.82086698  -4.90160293   2.40793132
N    1.82293777  -4.96786592   1.26324950
C    2.51390700  -0.34759524  -3.50662779
H    3.19891206  -0.36313518  -4.32847129
H    2.22408231   0.66206087  -3.30292384
H    1.64728066  -0.92450035  -3.75368725
C    3.19243796  -0.94806834  -2.26138573
N    3.69763510  -1.39514786  -1.33424641
Na  -0.19542668   2.31467530  -1.48675882
