91
Energy:   -777.06200768
C   -1.53318964   5.11321940  -2.97389267
H   -2.53153959   5.40294519  -2.72040399
H   -1.56240349   4.26208263  -3.62166719
H   -1.04213072   5.92334250  -3.47134698
C   -0.76102229   4.75525924  -1.69045116
N   -0.18610859   4.48874163  -0.73487062
C    3.05082981   6.68156255   1.55178837
H    4.09218633   6.67667350   1.30591670
H    2.91292227   7.13554502   2.51084025
H    2.51255620   7.23790058   0.81310805
C    2.52524931   5.23449028   1.58848951
N    2.13393074   4.15707919   1.61581518
C    0.53933161  -1.48577349   0.13752126
H    0.23126496  -0.72840234  -0.55268455
H    0.75661091  -2.38747517  -0.39597934
H    1.41547611  -1.15920656   0.65773654
C   -0.59099762  -1.74805815   1.15002438
N   -1.43257911  -1.94334101   1.90387899
C    3.85724753  -3.40976110  -2.26451894
H    3.93695568  -4.35679033  -2.75613102
H    3.82722355  -3.55909773  -1.20541733
H    4.70362297  -2.80519707  -2.51561661
C    2.56758920  -2.70193284  -2.71988754
N    1.60737996  -2.17492253  -3.05893016
C    4.60851623  -3.81587990   1.81364320
H    5.09770799  -3.22794627   1.06536140
H    4.25543638  -4.72675879   1.37714193
H    5.29983251  -4.04107192   2.59867151
C    3.41763607  -3.02697058   2.38899224
N    2.53097166  -2.43959173   2.81736575
C   -4.50082009   2.07125793  -2.46537073
H   -3.96568486   2.30627811  -3.36163854
H   -5.55261896   2.10236592  -2.65940814
H   -4.22814465   1.09116483  -2.13376145
C   -4.14965884   3.09883556  -1.37341377
N   -3.88820333   3.86391381  -0.56040218
C   -4.27301708  -3.57098905   0.43571143
H   -5.17250852  -3.73059388   0.99279457
H   -3.43181682  -3.61853060   1.09527266
H   -4.18010533  -4.32687495  -0.31588887
C   -4.32284490  -2.18494002  -0.23360558
N   -4.35994397  -1.15296351  -0.73194252
C   -1.72891234  -0.90932973  -2.83791556
H   -1.01630014  -1.54862270  -3.31581570
H   -2.69191700  -1.05448348  -3.28114406
H   -1.77690803  -1.14523247  -1.79534883
C   -1.29945569   0.55921336  -3.01269597
N   -0.97970569   1.65261043  -3.14282793
C   -3.73162351   0.87281615   1.84446141
H   -4.61552539   0.94984988   1.24639499
H   -3.77465295   1.58885493   2.63839845
H   -3.66426078  -0.11253430   2.25609943
C   -2.49448508   1.14955312   0.97010156
N   -1.57337928   1.35559637   0.31910090
C    4.09904610   0.84657799   1.88482579
H    3.61687803   0.34732588   2.69917304
H    3.53772553   1.71749640   1.61776878
H    5.08690816   1.13493473   2.17787535
C    4.17910695  -0.10336345   0.67536247
N    4.23871589  -0.81063804  -0.22513794
C   -3.24982357   5.76074656   2.10228391
H   -4.19167708   5.25319461   2.08803029
H   -3.12939766   6.31467172   1.19477986
H   -3.21829876   6.43074608   2.93595407
C   -2.11295201   4.72970351   2.22906432
N   -1.26649946   3.96204509   2.32345810
C    0.35225047  -0.53209467   4.67769012
H    1.26856694  -1.03728542   4.90140111
H   -0.39398277  -1.24979060   4.40760198
H    0.02682375   0.01415885   5.53827343
C    0.57582934   0.44175302   3.50583979
N    0.74229398   1.16682688   2.63334396
C    0.01313230  -5.26890014  -3.14732792
H    0.92214296  -5.61784062  -2.70366099
H    0.24184649  -4.59074521  -3.94274907
H   -0.53685679  -6.10084781  -3.53498002
C   -0.83276933  -4.54533879  -2.08313367
N   -1.46258155  -4.00661449  -1.29079267
C   -0.05970405  -5.15657276   1.92378053
H   -1.01259804  -4.91712653   1.50003683
H    0.17066740  -4.45817795   2.70100172
H   -0.08859248  -6.14591117   2.33031967
C    1.02176799  -5.08245494   0.82992278
N    1.82697308  -5.02727084   0.01549596
C    2.58216012   1.05783121  -3.15640752
H    1.77678634   0.62996004  -3.71604982
H    3.37823919   0.34731460  -3.07688797
H    2.93617940   1.93578160  -3.65517856
C    2.08601357   1.43266704  -1.74752970
N    1.71660991   1.71174935  -0.69855613
Na   0.29105592   2.77760835   0.89345535
