91
Energy:   -776.59525248
C    2.30562017   4.73793830  -2.87867985
H    2.96708702   3.96392959  -2.54963230
H    2.43007957   5.60098988  -2.25855815
H    2.53098532   4.99226595  -3.89328672
C    0.85011391   4.24374058  -2.78449845
N   -0.23357666   3.87578791  -2.71437611
C    0.73623342   4.42001654   2.68680388
H    0.21704645   5.21744125   3.17614928
H    1.47358549   4.01555540   3.34833408
H    0.04000083   3.65351360   2.41729969
C    1.42429444   4.95763498   1.41828567
N    1.93658715   5.35791634   0.47381621
C   -0.02031043  -1.25788587   0.43626205
H    1.02073488  -1.01576127   0.38625685
H   -0.60037566  -0.37354284   0.27390190
H   -0.25477557  -1.98140060  -0.31636776
C   -0.34632321  -1.83783786   1.82513618
N   -0.58905453  -2.26963848   2.85921610
C    3.00324907  -2.00574806  -2.04069845
H    3.31934252  -2.94610981  -1.63981830
H    2.98197730  -1.27427289  -1.26006365
H    3.68731309  -1.69468774  -2.80240507
C    1.59438290  -2.15280213  -2.64490968
N    0.54541800  -2.26229057  -3.09477241
C    5.00277164  -3.75207579   1.33124654
H    5.00881002  -4.25988954   2.27304743
H    6.00096475  -3.46454125   1.07466618
H    4.61437555  -4.40407688   0.57696400
C    4.11642743  -2.49664200   1.43064439
N    3.45650388  -1.56191447   1.50465060
C   -5.87079725   1.44596660  -0.09934502
H   -6.05040930   0.51259370  -0.59072543
H   -6.75644358   2.04521192  -0.13722291
H   -5.60510630   1.26630876   0.92145392
C   -4.72001583   2.18543488  -0.80679733
N   -3.86320675   2.73600262  -1.33352774
C   -3.87719515  -3.46827038   1.88430581
H   -2.98426585  -3.63557014   2.44962717
H   -3.98206313  -4.23694403   1.14739156
H   -4.72271975  -3.48487479   2.53982967
C   -3.79449083  -2.09726795   1.18780574
N   -3.73291370  -1.07649433   0.66922977
C   -2.87878892  -1.63099685  -2.74047003
H   -2.22594618  -2.26270589  -3.30583736
H   -3.74574637  -1.40075911  -3.32380051
H   -3.17533480  -2.13519870  -1.84451237
C   -2.14381810  -0.32750218  -2.37671248
N   -1.59659891   0.64300884  -2.10587845
C   -2.32680549   0.66326490   3.62500336
H   -3.00951108   1.20059446   4.24957539
H   -1.37563052   0.59711815   4.11058535
H   -2.70565656  -0.32146838   3.44703898
C   -2.16793811   1.40239501   2.28334475
N   -2.04965412   1.95271097   1.28441892
C    3.34247802   1.69282500   0.27582159
H    3.78174088   1.08576013  -0.48799813
H    3.44619314   1.20525448   1.22261473
H    3.83760715   2.64087118   0.30671952
C    1.84837715   1.90380426  -0.03199382
N    0.73595113   2.06088792  -0.26117638
C   -0.88296184   7.51027871  -0.67462116
H   -1.41014086   8.20219175  -0.05153304
H   -1.11442264   7.70638820  -1.70071378
H    0.16988373   7.62080955  -0.51906335
C   -1.30639896   6.07310576  -0.31848228
N   -1.62166714   5.00306517  -0.05332069
C    2.25749379  -0.90468177   4.58794010
H    3.31079466  -0.95510114   4.40651423
H    1.79922340  -1.82328283   4.28617953
H    2.08255122  -0.74471690   5.63135058
C    1.65288014   0.25975550   3.78163484
N    1.20271780   1.12673198   3.18130392
C   -0.43901469  -5.43430265  -2.64296255
H    0.60215988  -5.45563235  -2.39719694
H   -0.58105703  -4.87779044  -3.54574559
H   -0.79346863  -6.43441024  -2.78097088
C   -1.22294566  -4.76515690  -1.49871773
N   -1.80661791  -4.26694747  -0.64677546
C    0.28818766  -5.44781405   2.08725558
H   -0.74008755  -5.26609419   1.85374291
H    0.54151602  -4.94513857   2.99722326
H    0.44682094  -6.49945819   2.20464037
C    1.17522006  -4.91924939   0.94471765
N    1.83565600  -4.52570898   0.09404622
C    0.45331617   0.92169147  -4.83756427
H    0.05797318  -0.06995447  -4.76515969
H    0.77122213   1.10643194  -5.84240547
H   -0.30363198   1.62804281  -4.56738585
C    1.65420925   1.06641451  -3.88440580
N    2.54832873   1.17416739  -3.17473600
Na  -1.47851949   2.74879248  -0.92817106
