91
Energy:   -779.24007121
C   -1.48688263   6.84915319  -3.40758566
H   -1.26243897   7.49320397  -2.58313201
H   -2.54464655   6.83036026  -3.56783982
H   -0.99922565   7.21324439  -4.28765802
C   -0.98938501   5.42522762  -3.09688954
N   -0.61897542   4.36505030  -2.86556217
C    4.39029589   4.23905977  -0.00849122
H    4.93342321   3.58966233  -0.66285798
H    5.00054048   5.08018029   0.24649290
H    3.50215112   4.57848713  -0.49929366
C    4.00856639   3.47459883   1.27271214
N    3.72435142   2.90542291   2.22662629
C    1.15763647  -4.68992103   0.60480346
H    1.74922513  -5.52925179   0.90554741
H    0.79168016  -4.84891298  -0.38801909
H    0.33166677  -4.57705683   1.27557527
C    2.02167504  -3.41552040   0.63546939
N    2.66499103  -2.46667121   0.65830156
C    2.60249081  -1.16052163  -2.50566874
H    3.49642579  -1.72841611  -2.65823440
H    2.65808554  -0.65371943  -1.56494569
H    2.49753419  -0.44247530  -3.29198462
C    1.38693474  -2.10604604  -2.50831912
N    0.48189799  -2.81003195  -2.51029244
C    5.41580070  -0.30909837   1.53891980
H    4.91722873  -1.25371420   1.60237919
H    5.04739055   0.34082078   2.30493426
H    6.46832473  -0.45193592   1.66810841
C    5.14875858   0.32062498   0.15916003
N    4.94993358   0.78948264  -0.86813383
C   -1.12741757  -1.37375994   0.19988003
H   -1.00102284  -2.36158801   0.59118586
H   -1.31605730  -0.69315408   1.00367715
H   -0.23809006  -1.07817553  -0.31647791
C   -2.31780024  -1.35701016  -0.77700714
N   -3.20409425  -1.34453919  -1.50434404
C   -5.42821841  -3.22538304   0.60831457
H   -6.46694662  -3.17700852   0.86051251
H   -5.08283537  -4.23290124   0.71086566
H   -5.29121579  -2.90252650  -0.40257268
C   -4.62749960  -2.30960357   1.55266480
N   -4.03132805  -1.62776412   2.25577647
C   -4.14862398   1.51575243   0.65970710
H   -4.80926239   2.35586208   0.71140655
H   -3.94578512   1.16015545   1.64829512
H   -4.60680213   0.73640952   0.08734663
C   -2.83029845   1.94008832  -0.01375921
N   -1.84874518   2.25602569  -0.51518548
C   -2.21430451  -0.22622760   4.96325087
H   -3.04941598  -0.81743740   4.65026528
H   -2.49989459   0.38177694   5.79611813
H   -1.40943990  -0.86991676   5.25092484
C   -1.75973460   0.67603335   3.80097234
N   -1.42128664   1.34780764   2.93560314
C    4.64237847   2.17213221  -3.97109413
H    5.46263846   2.06658359  -3.29217350
H    4.86979747   2.93136695  -4.68994202
H    4.47432557   1.24308438  -4.47460922
C    3.37637220   2.56844793  -3.18894198
N    2.43377299   2.86352300  -2.60659415
C    0.45316191   4.20950014   2.92630553
H    1.07750436   3.43286201   3.31608740
H   -0.56585719   4.01213807   3.18620429
H    0.75160606   5.14931180   3.34173811
C    0.59166505   4.25870618   1.39333598
N    0.69478694   4.29534231   0.25197046
C    1.74935773   0.15256349   2.57247961
H    2.60111567  -0.49495798   2.56131940
H    0.88866207  -0.39577261   2.89408433
H    1.92732709   0.96442912   3.24634919
C    1.50607811   0.70522583   1.15580062
N    1.32494537   1.11670806   0.10101872
C   -2.31992246  -4.77118892  -2.55317822
H   -2.96816173  -5.54632803  -2.90509495
H   -1.32682694  -4.94711358  -2.91054483
H   -2.66644433  -3.82529433  -2.91387910
C   -2.31752521  -4.76374913  -1.01319806
N   -2.31574035  -4.75820987   0.13338717
C   -2.45027161  -4.45412538   3.69546376
H   -2.60611188  -5.04534486   2.81735584
H   -3.34503043  -3.91427576   3.92539448
H   -2.19862411  -5.09335888   4.51580099
C   -1.30037651  -3.46017103   3.44768157
N   -0.44422734  -2.72012684   3.26319646
C   -1.82567519  -0.71076703  -4.51265700
H   -1.56784060  -1.73587070  -4.34657276
H   -1.69341717  -0.47286831  -5.54745703
H   -2.84730303  -0.55088753  -4.23767662
C   -0.91673494   0.19211429  -3.65812032
N   -0.23998760   0.86435047  -3.02187892
Na   0.32124787   2.63781894  -1.48290379
