91
Energy:   -780.82689489
C    1.53660854   5.56317932  -5.15000549
H    1.85970498   6.46777336  -4.67860493
H    0.69675804   5.76958984  -5.78004115
H    2.33502001   5.16335272  -5.73956203
C    1.13123170   4.53961285  -4.07316692
N    0.82941022   3.77752109  -3.27141166
C    0.26010142   4.82057932   2.73409441
H    0.22672269   5.83174598   3.08241614
H    1.18325541   4.37031866   3.03401296
H   -0.55718028   4.27176662   3.15332505
C    0.15576471   4.80317398   1.19773153
N    0.07808129   4.79021492   0.05383953
C    0.47295092  -1.41909410   0.17170061
H    1.45931202  -1.80391201   0.32631995
H    0.53385356  -0.40004691  -0.14881896
H   -0.02298346  -1.99971120  -0.57785390
C   -0.32055264  -1.49625568   1.48927345
N   -0.91135211  -1.55370598   2.47026632
C    3.13077986  -4.34451669  -2.53000201
H    2.89506893  -5.29044239  -2.08890666
H    3.74169911  -3.77960290  -1.85728425
H    3.65988936  -4.50045279  -3.44685869
C    1.82923591  -3.57171154  -2.81347254
N    0.86017727  -2.99632299  -3.02452923
C    4.83023799  -3.26403521   1.12273269
H    5.17939210  -2.55985683   0.39669936
H    4.41541243  -4.11480463   0.62372344
H    5.64741570  -3.57552054   1.73925241
C    3.74862881  -2.60474648   1.99855228
N    2.94332161  -2.11387605   2.65063978
C   -4.81824767   2.46200691  -0.95346086
H   -5.02053397   1.51820015  -1.41520670
H   -5.60999737   3.14586279  -1.17789936
H   -4.74824705   2.33283408   0.10640394
C   -3.48832511   3.02205519  -1.49128231
N   -2.49813732   3.43903659  -1.89171482
C   -4.14961648  -2.65566856   1.58088510
H   -3.24663538  -2.90138694   2.09967965
H   -4.46862743  -3.49710129   1.00198781
H   -4.91004609  -2.40122455   2.28933703
C   -3.89564631  -1.45719070   0.64774525
N   -3.70655397  -0.56486946  -0.04701978
C   -2.16823386  -1.43265810  -2.90952870
H   -1.74354257  -2.01518718  -3.70022293
H   -3.15657018  -1.12707101  -3.18285441
H   -2.21084339  -2.02063647  -2.01657576
C   -1.29567895  -0.18781713  -2.66331967
N   -0.64602216   0.73902356  -2.48000586
C   -2.61236344   1.43344906   2.85384219
H   -2.83086191   2.38246113   3.29716453
H   -2.05137566   0.83821558   3.54368920
H   -3.52705699   0.93327372   2.61288696
C   -1.78881562   1.64415133   1.56971854
N   -1.17564684   1.80102874   0.61363012
C    3.61321133   1.21066909   1.42497834
H    4.43346375   0.71547083   0.94867504
H    3.11139864   0.52480403   2.07511081
H    3.97896724   2.03936506   1.99452614
C    2.62847934   1.71781556   0.35506930
N    1.89530161   2.09540916  -0.44152661
C   -3.05016064   6.67915312  -0.09894897
H   -3.23902457   6.34080089  -1.09631970
H   -2.05627304   7.07067609  -0.03733502
H   -3.75185344   7.44545622   0.15660117
C   -3.19888015   5.49972126   0.88004184
N   -3.30960858   4.62158064   1.60894500
C    1.17103621  -0.54363407   5.10586238
H    2.18289355  -0.89126709   5.09185564
H    0.52228559  -1.32012852   4.75789961
H    0.90038099  -0.27389346   6.10530465
C    1.03797491   0.68604652   4.18837650
N    0.93890473   1.60159962   3.50526657
C   -0.80665535  -5.91185089  -1.99874807
H    0.16490435  -6.21296119  -1.66662681
H   -0.73064667  -5.47155450  -2.97099334
H   -1.44903061  -6.76640108  -2.04343682
C   -1.38983156  -4.88225953  -1.01312790
N   -1.82403277  -4.11568197  -0.27928887
C    0.31790553  -4.74562457   2.72530377
H   -0.70713510  -4.53816015   2.49913921
H    0.71848558  -3.95396122   3.32338725
H    0.38479498  -5.66805468   3.26340002
C    1.12039256  -4.85601206   1.41555984
N    1.71788064  -4.93820056   0.44039595
C    2.58907514   0.20717692  -3.45406730
H    3.30606719   0.26387450  -4.24628442
H    2.28316422   1.19479566  -3.17851905
H    1.73763208  -0.35122735  -3.78289626
C    3.22286823  -0.49217443  -2.23718028
N    3.69475600  -1.01287329  -1.33115259
Na  -0.21943230   2.82050431  -1.34118768
