91
Energy:   -777.04881938
C   -0.76324622  -4.21797299  -2.48963246
H   -0.60372929  -3.86347320  -3.48651983
H   -1.71450062  -3.87706009  -2.13779080
H   -0.74339309  -5.28777385  -2.48405825
C    0.34769219  -3.67913295  -1.56926990
N    1.17483634  -3.27794204  -0.88401814
C   -0.29724612  -3.36231320   2.55908251
H   -0.45240462  -3.96572985   1.68918921
H   -1.24073412  -3.14155926   3.01295164
H    0.31831681  -3.89225492   3.25560469
C    0.39803434  -2.04884267   2.15537436
N    0.91570224  -1.07090416   1.85479529
C    1.05304179   1.64124491  -5.57397306
H    0.08360994   2.05668137  -5.39365494
H    0.99114251   0.57310103  -5.56230119
H    1.40889501   1.96747481  -6.52887704
C    2.02522675   2.11112929  -4.47594525
N    2.74906264   2.46097958  -3.65841363
C    5.03848484  -1.61677196   4.96489044
H    5.88486610  -2.24216319   4.77143566
H    5.02175413  -1.34964724   6.00087478
H    5.10621962  -0.73057253   4.36910386
C    3.74691848  -2.37660208   4.60976437
N    2.78528861  -2.94233014   4.34535687
C   -4.26909733   0.00699403   2.14985905
H   -4.15188683   0.61387788   1.27644399
H   -5.03541159   0.42079698   2.77149292
H   -4.54241060  -0.98609736   1.86008597
C   -2.94150398  -0.03272280   2.92929376
N   -1.95305039  -0.06229379   3.50961833
C   -1.34647303  -0.00996638  -0.55183922
H   -1.02744713   0.46882812   0.35031292
H   -2.05483717   0.61404940  -1.05554911
H   -0.50096523  -0.17420643  -1.18669422
C   -2.00301736  -1.36080829  -0.21158100
N   -2.49184446  -2.36657150   0.04175672
C    3.93283406  -3.57065607   0.98900089
H    3.84464701  -3.77483312  -0.05762940
H    3.06872437  -3.94235900   1.49895233
H    4.80812844  -4.05110972   1.37360864
C    4.04366008  -2.05032258   1.20786997
N    4.12617509  -0.91836519   1.37082796
C   -1.28450304   3.34423072   3.48351240
H   -0.88219077   4.23069829   3.92760730
H   -1.52280980   2.63750840   4.25074935
H   -2.17100465   3.58984078   2.93698730
C   -0.24464692   2.73203598   2.52668596
N    0.52957323   2.27622916   1.81428519
C   -4.41582336   3.38793968  -1.75063929
H   -4.77980899   4.39345478  -1.71384222
H   -5.24311504   2.70958430  -1.76857125
H   -3.82579291   3.25428062  -2.63319151
C   -3.55047579   3.10944287  -0.50757327
N   -2.90618520   2.90208934   0.41794588
C   -2.98660431   0.14189905  -4.31623398
H   -2.94411849   0.66190251  -5.25041359
H   -3.19061607   0.83790620  -3.52956229
H   -3.76317959  -0.59330899  -4.35227632
C   -1.63643739  -0.55009844  -4.05205834
N   -0.63117674  -1.06532202  -3.85536758
C    2.86416931  -1.08940528  -2.89245131
H    2.02299386  -1.29745444  -3.52017703
H    3.27403369  -2.00857363  -2.52907845
H    3.60800763  -0.56495099  -3.45508027
C    2.41436292  -0.22187529  -1.70221355
N    2.07946161   0.42404023  -0.81602744
C    0.67200375  -0.26135043   5.69397555
H    0.45351241  -1.26543075   5.39567296
H   -0.22755965   0.31791720   5.68240916
H    1.08177600  -0.26408570   6.68239768
C    1.69140288   0.35400010   4.71736451
N    2.45039188   0.81215655   3.99023320
C    0.58318577   3.77301347  -1.20756953
H    0.04674951   4.09924024  -0.34113291
H    1.04333469   4.61542951  -1.68032452
H    1.33691339   3.07126198  -0.91715843
C   -0.39182358   3.10103778  -2.19215343
N   -1.11776236   2.60072134  -2.92522090
C   -5.89217843  -2.49498924  -1.07030749
H   -6.16790430  -2.92149509  -2.01209738
H   -6.75583671  -2.42903926  -0.44210047
H   -5.15589849  -3.11323227  -0.60066242
C   -5.31200866  -1.08624799  -1.29492082
N   -4.88004590  -0.03737610  -1.46215565
C    4.99530218   3.59925711  -1.41036795
H    4.32570056   4.27875772  -1.89494277
H    5.24563305   2.80509740  -2.08233812
H    5.88596871   4.11894368  -1.12481920
C    4.31684343   3.01631926  -0.15678221
N    3.81170005   2.58229554   0.77656935
Na   2.40642445   0.79390527   1.55361640
