91
Energy:   -777.30562382
C    1.99514521   5.08533535  -5.33812514
H    2.68739460   5.80661705  -4.95675436
H    1.18175719   5.58979920  -5.81647151
H    2.49067758   4.45551901  -6.04712313
C    1.45629714   4.22764122  -4.17812361
N    1.05510026   3.58904896  -3.31444975
C   -1.74177255   7.18547009  -0.70218729
H   -2.17057782   7.23051687  -1.68147122
H   -1.21082622   8.09288961  -0.50322775
H   -2.51931954   7.06101395   0.02226453
C   -0.76969119   5.99375231  -0.62177242
N   -0.04593243   5.10646425  -0.56189989
C    0.43805256  -1.50355320   0.21200725
H    1.35511617  -1.98769236   0.47564296
H    0.62645048  -0.47062349   0.00594530
H    0.02498070  -1.97109690  -0.65728765
C   -0.55847276  -1.62048815   1.38028098
N   -1.30043115  -1.70755153   2.25011388
C    3.43407865  -4.24907734  -2.17035793
H    3.14874131  -5.22560343  -1.83887705
H    3.89585781  -3.71931439  -1.36350583
H    4.12569958  -4.33592289  -2.98215681
C    2.18471495  -3.48107834  -2.64032377
N    1.25450689  -2.90926818  -2.99023470
C    4.57461601  -3.34116904   1.73721669
H    4.99969724  -2.60285600   1.08983738
H    4.26085040  -4.18476749   1.15860464
H    5.30673701  -3.65199994   2.45295553
C    3.36069563  -2.74227158   2.47160019
N    2.45687672  -2.29636520   3.01838209
C   -4.73320594   3.11528082  -0.69342733
H   -4.96062552   2.08371364  -0.52298769
H   -5.49342858   3.55142213  -1.30721996
H   -4.69168557   3.63084486   0.24325238
C   -3.37149531   3.23022236  -1.40345028
N   -2.35763984   3.31580156  -1.93209465
C   -4.38072437  -2.57225552   0.65263000
H   -3.60129851  -2.88185725   1.31711649
H   -4.55736465  -3.33948528  -0.07197735
H   -5.27631904  -2.39595248   1.21095473
C   -3.95929740  -1.27616545  -0.06441242
N   -3.64552586  -0.31116748  -0.59828310
C   -1.81658808  -1.34990151  -3.29259473
H   -1.25359588  -1.95305374  -3.97387833
H   -2.67654893  -0.95540033  -3.79232990
H   -2.12959256  -1.94747996  -2.46203631
C   -0.93868116  -0.18953164  -2.78819289
N   -0.28503956   0.67441648  -2.41264280
C   -2.91736616   1.28758618   2.49497370
H   -3.74313592   1.95588236   2.36697101
H   -2.50333496   1.41550573   3.47329565
H   -3.25392142   0.27850770   2.37925739
C   -1.84038049   1.59394997   1.43769270
N   -1.03851571   1.82205173   0.65049893
C    3.00399932   1.10894036   1.99922507
H    3.96254840   0.69114161   1.77222719
H    2.34290867   0.33124251   2.32023021
H    3.10670102   1.83427317   2.77912491
C    2.42806684   1.78562594   0.74144989
N    1.99925893   2.28944912  -0.19502090
C   -0.41153321   4.66670744   3.16004428
H    0.00304982   5.64535003   3.28365565
H    0.26563153   4.06131040   2.59449903
H   -0.57001780   4.22256646   4.12052359
C   -1.75473695   4.76874405   2.41372514
N   -2.75481318   4.84471494   1.85805662
C    0.36411009  -0.92933570   5.28307270
H    1.38292310  -1.19618416   5.47204921
H   -0.09633019  -1.68400729   4.68027536
H   -0.16069697  -0.84521357   6.21172770
C    0.31580051   0.41981895   4.54209503
N    0.27983183   1.42432592   3.99040348
C   -0.52167764  -5.85828278  -2.30883080
H    0.38191441  -6.17310902  -1.82997171
H   -0.28780287  -5.40689816  -3.25034745
H   -1.15537605  -6.70577388  -2.46721087
C   -1.24672887  -4.83506927  -1.41499926
N   -1.78656247  -4.07324030  -0.74950105
C   -0.13976632  -4.92883042   2.55674308
H   -1.11555222  -4.69769411   2.18348974
H    0.16239340  -4.17657231   3.25510283
H   -0.16085453  -5.88079043   3.04482762
C    0.86010486  -4.97407256   1.38635393
N    1.60455441  -5.00775738   0.51494601
C    3.06341727   0.29131933  -3.01800352
H    2.25298548  -0.22945589  -3.48372195
H    3.90203777   0.31304272  -3.68218937
H    2.76118094   1.29261883  -2.79227892
C    3.45784171  -0.43154317  -1.71665838
N    3.75150863  -0.96974716  -0.74774777
Na  -0.06202866   2.80608249  -1.32898316
