91
Energy:   -776.32131657
C    0.00754877   5.43425920  -5.77609125
H    0.29469170   4.83583455  -6.61533916
H    0.64448652   6.29185473  -5.71494126
H   -1.00740613   5.75153239  -5.89484886
C    0.13833996   4.60460920  -4.48528741
N    0.23571994   3.98689707  -3.52422528
C    0.70753190   4.51682961   2.69903808
H    0.88803236   5.50579627   3.06545957
H    1.53618106   3.88739911   2.94815035
H   -0.18311338   4.12770139   3.14650797
C    0.53697395   4.55942013   1.16910474
N    0.40998580   4.59113070   0.02999982
C    0.47539750  -1.38099434   0.21426561
H    0.73927495  -0.34716443   0.13386289
H   -0.04628042  -1.68566867  -0.66886789
H    1.36308654  -1.96813616   0.32459130
C   -0.43117277  -1.58538836   1.44225316
N   -1.10615555  -1.73756900   2.35654571
C    3.63405619  -3.57421947  -1.94451747
H    3.67855073  -3.41204090  -0.88781575
H    4.48792757  -3.12808387  -2.41009860
H    3.62754827  -4.62542730  -2.14406403
C    2.35044508  -2.93678253  -2.50809237
N    1.39473827  -2.46218175  -2.92769950
C    4.75051555  -3.62179146   1.99433367
H    5.27070590  -3.00857797   1.28845025
H    4.41858683  -4.51751032   1.51224433
H    5.40739524  -3.87314840   2.80070074
C    3.53414166  -2.85342743   2.54356156
N    2.62849601  -2.28134549   2.95248670
C   -4.91459405   2.63897665  -0.67665830
H   -5.13137017   1.68745464  -1.11542266
H   -5.70970984   3.32129941  -0.89374263
H   -4.81813875   2.52930140   0.38332604
C   -3.59704729   3.18427368  -1.25831257
N   -2.61607384   3.59027210  -1.69138061
C   -4.16846643  -2.80418493   1.02794742
H   -3.27367110  -3.15168903   1.50068667
H   -4.51004992  -3.53780726   0.32793450
H   -4.92265707  -2.63988682   1.76896139
C   -3.87920668  -1.48463519   0.28854410
N   -3.66383966  -0.50217042  -0.26197528
C   -2.03216078  -1.55304008  -3.21727719
H   -1.27296003  -2.21157265  -3.58449546
H   -2.79701447  -1.44260727  -3.95734646
H   -2.45661070  -1.96106848  -2.32382648
C   -1.41313307  -0.17692782  -2.90951147
N   -0.95223880   0.84765031  -2.68036590
C   -2.63840703   1.37355212   2.64977633
H   -3.58268537   1.00502733   2.30709852
H   -2.78256565   2.30133733   3.16293517
H   -2.19844984   0.66174703   3.31661235
C   -1.70507928   1.59310280   1.44466355
N   -1.01017435   1.75656826   0.54740231
C    3.28807704   1.06371596   1.64155675
H    3.95920857   1.89706219   1.63747028
H    3.26645958   0.62796257   2.61856788
H    2.30578145   1.39555303   1.37721109
C    3.76703450   0.01388030   0.62173086
N    4.12364011  -0.76777006  -0.13757587
C   -2.52313834   6.81304991   0.12848834
H   -2.91008219   6.59157317  -0.84420004
H   -1.47444232   7.01347504   0.05802194
H   -3.02443390   7.67124491   0.52485078
C   -2.75407631   5.60818707   1.05938747
N   -2.92602012   4.71111191   1.75248418
C    0.65794980  -0.90580512   5.29423964
H    0.13950830  -1.68907455   4.78178713
H    0.15821369  -0.69057526   6.21556424
H    1.66184771  -1.21565410   5.49692580
C    0.67850193   0.35770041   4.41405136
N    0.69380393   1.29843770   3.75871118
C   -0.19593261  -5.56722905  -2.45375992
H    0.72132325  -5.86484741  -1.99011655
H    0.01775135  -4.99999488  -3.33551026
H   -0.76094314  -6.43683390  -2.71729283
C   -1.01044919  -4.70369181  -1.47270631
N   -1.61689380  -4.06074908  -0.74226731
C    0.00799919  -4.95293017   2.50351831
H   -0.96817309  -4.73086288   2.12579623
H    0.28810652  -4.21367791   3.22459048
H    0.00042958  -5.91766474   2.96625905
C    1.02070880  -4.94801508   1.34334802
N    1.77471713  -4.94435557   0.47954850
C    3.19632811   0.50106536  -3.39386008
H    3.89785159  -0.16661246  -2.93891909
H    3.71817604   1.19446701  -4.01977381
H    2.50171965  -0.05933702  -3.98408660
C    2.43530338   1.27060419  -2.29830024
N    1.86868588   1.84356082  -1.48260614
Na  -0.32446792   2.84424990  -1.48837543
