91
Energy:   -776.06898055
C   -0.31387358   2.88064499  -5.73243811
H    0.27470850   3.36412680  -6.48391443
H   -1.34032032   3.15932470  -5.84924478
H   -0.21873185   1.81961189  -5.83271718
C    0.17939212   3.31079743  -4.33843028
N    0.54665086   3.63106548  -3.30052809
C    0.55246942   4.64186390   3.10921407
H    0.58855372   5.63871821   3.49635690
H    1.43325654   4.11182358   3.40614907
H   -0.31162471   4.14114118   3.49329374
C    0.47650943   4.69066720   1.57186299
N    0.41995377   4.72700347   0.42723524
C    0.35545480  -1.21693413   0.47407033
H    1.33692825  -0.92030500   0.78004615
H   -0.11212401  -0.41207253  -0.05362935
H    0.42451990  -2.07107696  -0.16668636
C   -0.48357293  -1.57293085   1.71539978
N   -1.10826722  -1.83798658   2.63962598
C    1.91183046  -3.10271267  -2.67404778
H    0.88830126  -2.83143087  -2.52011809
H    2.06966658  -4.10565255  -2.33626317
H    2.14555960  -3.03637229  -3.71609803
C    2.82138772  -2.14515082  -1.88197398
N    3.49859444  -1.43220249  -1.29223904
C    4.96491577  -3.26290495   1.12049454
H    5.45605896  -2.53974064   0.50347595
H    4.50525199  -4.00569862   0.50254158
H    5.68181586  -3.72829084   1.76420978
C    3.88780680  -2.56484429   1.97146315
N    3.08585021  -2.04510639   2.60504797
C   -4.69124420   2.72083548  -0.64370842
H   -4.83995655   1.77769181  -1.12668339
H   -5.51678477   3.36633033  -0.85985247
H   -4.62143774   2.57296838   0.41372312
C   -3.38951507   3.36204651  -1.15941152
N   -2.42031856   3.83945726  -1.54337592
C   -3.98060426  -2.88955335   1.00091622
H   -3.03874471  -3.36214624   1.18654151
H   -4.56449257  -3.50267005   0.34665219
H   -4.50196211  -2.75772763   1.92596058
C   -3.74544924  -1.51667118   0.34403216
N   -3.57036564  -0.49449800  -0.14504788
C   -2.00371884  -1.25325503  -3.32725611
H   -1.20323948  -1.90742666  -3.60328591
H   -2.57868812  -1.00710556  -4.19542652
H   -2.63113353  -1.74017019  -2.61020414
C   -1.42527564   0.03478800  -2.71248086
N   -0.99459838   0.99379459  -2.25475275
C   -2.62258500   1.26918648   3.01330596
H   -3.37431291   0.56122233   2.73296314
H   -3.08882094   2.14268336   3.41892444
H   -1.97937771   0.83384240   3.74928082
C   -1.79536376   1.65751383   1.77374681
N   -1.17945994   1.94664119   0.85083868
C    3.86027545   1.11088374   1.09053533
H    4.48873002   0.40889496   0.58342905
H    3.43693911   0.64896873   1.95789913
H    4.44011082   1.96027046   1.38588639
C    2.73052705   1.56355403   0.14694741
N    1.88937802   1.90058763  -0.55559669
C   -2.60474974   6.82679537   0.51799830
H   -3.53013198   7.14934767   0.08843118
H   -1.92332263   6.55929884  -0.26238737
H   -2.18603841   7.62067462   1.10052354
C   -2.85626847   5.60496138   1.42102655
N   -3.04353561   4.69525044   2.09337214
C    1.20070657  -0.69017586   5.12202620
H    0.42436589  -1.39154330   4.89779626
H    1.04803783  -0.29062094   6.10281527
H    2.14945895  -1.18325107   5.08146947
C    1.17229139   0.45387027   4.09151612
N    1.15113500   1.30566463   3.32425453
C   -0.71608015  -6.34308108  -1.60355762
H    0.32515711  -6.45416622  -1.38359115
H   -0.89128509  -6.58456580  -2.63112146
H   -1.28447709  -7.00157775  -0.98049571
C   -1.14445336  -4.88789846  -1.33796403
N   -1.46339669  -3.80444886  -1.14021753
C    0.70399923  -4.75093879   2.90108624
H    0.98767613  -5.66520974   3.37914086
H   -0.36325172  -4.68068705   2.87044000
H    1.10029119  -3.92302093   3.45099878
C    1.26139694  -4.72776483   1.46568707
N    1.67640487  -4.71051076   0.39696715
C    3.45294455   1.36081605  -3.57862470
H    4.11360304   1.54607409  -4.39966672
H    3.98211691   0.84591917  -2.80418497
H    3.08406898   2.29139016  -3.20065416
C    2.27138052   0.49591694  -4.05554815
N    1.39165239  -0.14803976  -4.41063934
Na  -0.19512972   2.95520857  -1.10355567
