91
Energy:   -775.80500927
C    1.89725956   5.18064263  -3.32046354
H    1.74519904   6.17833035  -2.96493997
H    2.18205385   5.20892987  -4.35147815
H    2.67157396   4.71259450  -2.74926545
C    0.59178594   4.37764366  -3.17035938
N   -0.38019852   3.77977442  -3.05860001
C    0.73455584   4.72560841   2.33821956
H    0.03908937   3.93493748   2.14830895
H    0.23150715   5.53316235   2.82780891
H    1.52299750   4.36426023   2.96486646
C    1.32475621   5.22138163   1.00500074
N    1.76418721   5.59050734   0.01235872
C    0.24569236  -1.34489032   0.19673599
H    0.01803577  -0.34944814  -0.12290056
H   -0.24289769  -2.04657218  -0.44655355
H    1.30362978  -1.49963990   0.15526218
C   -0.24608783  -1.54496222   1.64232358
N   -0.61224053  -1.69392484   2.71862925
C    2.75278082  -3.94534814  -3.10727404
H    3.05297357  -4.09074910  -4.12395642
H    2.79553270  -4.87869288  -2.58579636
H    3.41069963  -3.24409324  -2.63793035
C    1.31228309  -3.40204260  -3.07005345
N    0.23976705  -2.99752694  -3.04234103
C    4.98261731  -2.52101036   0.06091291
H    5.06172825  -1.79170233  -0.71802960
H    4.59480223  -3.43303943  -0.34244987
H    5.95005678  -2.69997598   0.48154489
C    4.03452914  -2.00045102   1.15715504
N    3.32863441  -1.61287093   1.97335714
C   -5.98624535   1.41495498  -0.26356074
H   -6.12830567   0.43896082  -0.67847573
H   -6.85857435   2.00853007  -0.44135222
H   -5.81882818   1.33366261   0.79012903
C   -4.76723643   2.08235400  -0.92703327
N   -3.85962888   2.57926290  -1.42101873
C   -3.81575814  -3.16526794   2.33736692
H   -2.82334083  -3.30053921   2.71381046
H   -4.10332852  -4.02701455   1.77203945
H   -4.49263558  -3.03322958   3.15547565
C   -3.85601338  -1.92034182   1.43175195
N   -3.88598524  -0.99343773   0.75748044
C   -2.91049908  -1.87525980  -2.38497181
H   -2.54005776  -2.42351300  -3.22585934
H   -3.95575111  -1.68668972  -2.51454271
H   -2.75892751  -2.44565242  -1.49245995
C   -2.15742454  -0.53664363  -2.27278680
N   -1.59672631   0.46001696  -2.18925996
C   -2.43211530   1.03175705   3.53597823
H   -2.83738081   1.84926855   4.09484762
H   -1.55123030   0.66871160   4.02294712
H   -3.15635420   0.24634090   3.47682943
C   -2.07428857   1.50807865   2.11588043
N   -1.80787030   1.86272174   1.05855307
C    3.22122963   1.76776255   0.61985873
H    3.59544281   2.69249009   1.00682598
H    3.92468765   1.36192244  -0.07680454
H    3.07669875   1.07699252   1.42412652
C    1.87820274   2.01514546  -0.09195618
N    0.87825817   2.19933328  -0.62193474
C   -1.35966279   7.49809668  -1.00034487
H   -1.93460293   8.11324836  -0.34009308
H   -1.67748400   7.66291395  -2.00867221
H   -0.32317408   7.74716464  -0.90784946
C   -1.56652310   6.01705014  -0.63249985
N   -1.72054000   4.91434367  -0.35862252
C    1.95651469  -0.51624073   4.83795310
H    2.99462196  -0.69680790   4.65186444
H    1.39235898  -1.39111038   4.59050511
H    1.81514267  -0.28139997   5.87224651
C    1.47784795   0.66480629   3.97331093
N    1.12145879   1.54414947   3.32954552
C   -0.72498634  -6.07542091  -1.70993547
H    0.32862728  -6.20872990  -1.57944697
H   -0.91633523  -5.68000245  -2.68560392
H   -1.21962929  -7.01828000  -1.60389685
C   -1.25408782  -5.09564862  -0.64612258
N   -1.64802792  -4.36616361   0.14593448
C    1.19174669  -4.60774130   2.63643921
H    0.12247791  -4.56840668   2.64059023
H    1.58228249  -3.74653691   3.13714659
H    1.51806696  -5.49265242   3.14175740
C    1.69895848  -4.63023382   1.18253746
N    2.07660071  -4.64698052   0.10004152
C    1.30332006   0.39674544  -3.89389479
H    1.84328575   0.61448179  -4.79162978
H    0.82694254   1.28686675  -3.53942673
H    0.56229703  -0.34840614  -4.09522310
C    2.27832157  -0.12528110  -2.82223237
N    3.00425451  -0.51395359  -2.02433099
Na  -1.45739091   2.64861966  -1.18202386
