91
Energy:   -776.08402172
C   -3.04160054   5.58269099  -1.00385429
H   -3.17959627   6.39978126  -1.68077441
H   -2.91045229   5.96009981  -0.01125073
H   -3.90138683   4.94642995  -1.03281152
C   -1.79429353   4.77924407  -1.41652641
N   -0.86561677   4.18104132  -1.72377956
C    4.95857807   3.28665661   0.44669697
H    5.05113912   3.00274666   1.47418312
H    5.45998896   4.21840843   0.28755942
H    5.39988280   2.53383221  -0.17249981
C    3.46855094   3.43775327   0.08810399
N    2.35915800   3.55025159  -0.17888479
C    1.53225033  -5.05413535   2.04196106
H    1.38250269  -4.45852259   2.91815811
H    2.23909040  -5.82896036   2.25391015
H    0.60204916  -5.49148517   1.74472377
C    2.06924898  -4.16674529   0.90364154
N    2.46906887  -3.50604304   0.05611092
C    2.54294345   0.78773958  -5.64796488
H    2.64430997   1.40089287  -6.51898041
H    1.76828165   0.06703988  -5.80730764
H    3.46674207   0.28232412  -5.45809543
C    2.18240526   1.66994807  -4.43828707
N    1.91396819   2.32679238  -3.53762695
C    5.10264319  -2.52294846   2.18096875
H    5.09703291  -3.19608637   1.34925121
H    4.25301454  -2.71624261   2.80199018
H    5.99872557  -2.66449274   2.74833166
C    5.04385905  -1.07221343   1.66763424
N    5.00009159   0.00792474   1.28543337
C   -4.62632137  -3.50043308  -0.47752225
H   -4.07714187  -4.37139416  -0.18644004
H   -5.53504072  -3.79611659  -0.95887400
H   -4.85553099  -2.91697704   0.38962311
C   -3.77896073  -2.66107603  -1.45171920
N   -3.14806222  -2.03613655  -2.17705311
C   -4.46261058   2.09874678   3.76554862
H   -5.39097045   2.42989725   4.18194687
H   -3.69016515   2.18748008   4.50063607
H   -4.55176828   1.07614080   3.46351056
C   -4.10988927   2.96621778   2.54297685
N   -3.84727222   3.61208937   1.63271659
C    2.12459559   0.93902625   2.83890393
H    3.10734381   1.13841022   3.21220292
H    1.40766124   1.49307836   3.40805285
H    2.06724096   1.23162398   1.81128722
C    1.82456955  -0.56648317   2.96148356
N    1.60118653  -1.68740337   3.05274967
C   -3.74995656   1.29752760  -0.81863552
H   -3.76491446   0.75228008  -1.73916884
H   -2.87501125   1.91239491  -0.78246962
H   -4.62209839   1.91415896  -0.75512579
C   -3.73246326   0.30983716   0.36278802
N   -3.71943871  -0.42554326   1.24241155
C    4.09501673  -1.09483360  -1.88638569
H    3.86901394  -1.38290211  -2.89179080
H    4.18316584  -1.96927491  -1.27607330
H    5.01781150  -0.55348485  -1.86934339
C    2.96528632  -0.20082440  -1.34227470
N    2.12415068   0.46480609  -0.93715935
C   -1.93999942  -1.92404045   3.93480020
H   -2.69021116  -2.12682927   3.19930090
H   -2.31515615  -2.17389451   4.90522767
H   -1.06930097  -2.51028741   3.72720009
C   -1.57346432  -0.42881304   3.89546816
N   -1.30056228   0.68445173   3.86618366
C   -0.61308418   3.89612038   2.69193961
H   -1.34176084   4.64584943   2.46426254
H    0.34232461   4.35763664   2.83012746
H   -0.89534940   3.38505524   3.58862119
C   -0.53315788   2.88838254   1.53018395
N   -0.47364912   2.13807590   0.66520405
C    0.04392806  -3.90401807  -2.63525834
H    0.61646606  -4.22777021  -1.79128857
H    0.01528609  -4.68396895  -3.36721145
H   -0.95258910  -3.67178361  -2.32233694
C    0.69536529  -2.64975254  -3.24685259
N    1.18038992  -1.71589484  -3.70221230
C   -0.48154872  -1.29739096   0.26117382
H   -0.80842681  -1.00647834  -0.71525884
H    0.58791547  -1.31833931   0.28775587
H   -0.84254588  -0.59421468   0.98236953
C   -1.03075253  -2.69798840   0.59026652
N   -1.43965973  -3.74079685   0.83529099
C   -1.85570071  -0.25554371  -4.83683275
H   -1.11736672  -0.93537474  -5.20776787
H   -2.08281978   0.46998569  -5.58977572
H   -2.74342473  -0.79652628  -4.58348907
C   -1.31380810   0.45729659  -3.58391172
N   -0.91034441   0.98803860  -2.65105506
Na   0.68100176   2.34425848  -1.45894235
