91
Energy:   -776.00359691
C   -4.49861331  -0.62987848  -4.35410686
H   -5.18467203  -1.09044801  -5.03388574
H   -3.71769970  -0.14985278  -4.90605643
H   -5.01589750   0.09652955  -3.76279684
C   -3.89062983  -1.70336730  -3.43238139
N   -3.43795850  -2.50262853  -2.74611488
C   -2.39241947   3.21230717  -3.66736062
H   -3.32964116   3.02311634  -3.18702478
H   -2.19210576   2.43655625  -4.37657429
H   -2.43415078   4.15488307  -4.17204692
C   -1.27175895   3.24449731  -2.61157475
N   -0.43737625   3.26846434  -1.82549419
C   -1.78741834  -4.48829786  -0.16537049
H   -1.46398523  -5.50776176  -0.13399261
H   -2.52158589  -4.37055290  -0.93480743
H   -2.21394025  -4.22021276   0.77861496
C   -0.58239290  -3.57633720  -0.46175106
N    0.31480331  -2.89734104  -0.68241988
C    2.15112871   1.59241760  -3.43613483
H    1.90930228   2.50087224  -2.92512571
H    1.47285091   1.45036169  -4.25140069
H    3.15187278   1.64931884  -3.81053121
C    2.03506743   0.40747896  -2.45937989
N    1.94865453  -0.47476171  -1.73214143
C    5.97881506  -0.34627384  -1.50996466
H    6.77541103  -1.05939918  -1.55224108
H    6.37563266   0.61789333  -1.26951393
H    5.48789949  -0.30318852  -2.45972497
C    4.96774130  -0.76959782  -0.42824074
N    4.21495092  -1.08478176   0.37715189
C    4.44428084  -3.87753971   3.37857138
H    4.17208340  -4.65708794   4.05909566
H    4.61609349  -2.97262193   3.92309256
H    5.33645918  -4.15482037   2.85700419
C    3.30468796  -3.65890087   2.36608675
N    2.45620926  -3.49611432   1.61224591
C    1.09987000   1.02507496   4.69956001
H    0.09463678   0.99867151   4.33389731
H    1.47455614   2.02561211   4.64095287
H    1.11777703   0.69658088   5.71772997
C    1.98161529   0.09583488   3.84478628
N    2.63811473  -0.59602659   3.20836838
C    5.35840346   1.63109511   2.37861767
H    5.06567735   0.61188923   2.52155464
H    6.13791552   1.87842106   3.06861037
H    5.71280734   1.76337993   1.37771922
C    4.14771678   2.55163556   2.62036759
N    3.24630552   3.23701978   2.80036140
C   -6.02685061  -1.97650277  -0.51806584
H   -6.06785815  -1.04036670  -1.03465834
H   -6.92688432  -2.11333383   0.04417582
H   -5.92511708  -2.77113393  -1.22736881
C   -4.81887273  -1.98322964   0.43710127
N   -3.91947829  -1.98823810   1.14826659
C    2.79786866   4.70529912  -0.46077126
H    3.18324836   5.52896298  -1.02465113
H    2.82624641   4.94268625   0.58217703
H    1.78736968   4.51303414  -0.75543220
C    3.65673191   3.45489448  -0.72618066
N    4.29619464   2.52391138  -0.92379002
C   -4.91445195   1.33740130   2.23698103
H   -5.01808016   1.73241886   1.24798027
H   -5.41277650   1.98051897   2.93194247
H   -5.35045872   0.36115165   2.27862000
C   -3.42056350   1.24833218   2.60024949
N   -2.30829564   1.18201617   2.87071937
C   -2.03759656  -2.16857663   3.99943245
H   -2.81469720  -2.76615274   3.57057633
H   -2.45428130  -1.25715274   4.37437166
H   -1.57571737  -2.70595525   4.80117487
C   -0.98419690  -1.84685874   2.92312080
N   -0.19989298  -1.60732515   2.12175785
C   -0.01055722   3.34755542   1.63297102
H   -0.71312765   3.66899486   0.89271995
H    0.74036239   4.09879558   1.76203323
H   -0.51840404   3.18772790   2.56111210
C    0.65077708   2.03372847   1.17679595
N    1.14317052   1.05552459   0.83715287
C   -0.04844304  -2.52355200  -4.05853879
H   -0.79430511  -3.17250867  -3.64933810
H    0.83171331  -2.56425818  -3.45144168
H    0.18980326  -2.83671343  -5.05356025
C   -0.58462395  -1.08023210  -4.08916085
N   -0.98383500  -0.00561483  -4.11196036
C   -1.67763487  -0.01022498  -0.70461092
H   -0.89951259   0.57205195  -1.15224858
H   -1.64823018  -1.00570201  -1.09583968
H   -1.53635698  -0.03936250   0.35562049
C   -3.04320705   0.62641167  -1.02321162
N   -4.05993761   1.10041660  -1.26042432
Na   1.77366437  -1.32095815   0.65796974
