91
Energy:   -776.11545285
C    3.47031842  -0.05887279  -3.80352006
H    3.00127249   0.60084397  -4.50328424
H    4.39326768  -0.41428704  -4.21186363
H    3.66269835   0.46672379  -2.89157857
C    2.54015201  -1.25330921  -3.52118681
N    1.84760083  -2.14262142  -3.31097687
C   -3.49748422   5.16419009   1.45196500
H   -4.05105909   6.07609751   1.36901984
H   -3.27155497   4.97642480   2.48084753
H   -4.08044250   4.35629835   1.06161942
C   -2.18689296   5.28472712   0.65232671
N   -1.21109820   5.37447242   0.05695966
C   -0.40110063  -4.67635058  -2.78459783
H   -0.54013829  -5.73452274  -2.70817532
H    0.46558883  -4.47243309  -3.37803369
H   -1.26056321  -4.23604932  -3.24542098
C   -0.21139133  -4.08056607  -1.37724173
N   -0.07014413  -3.63697741  -0.32940115
C    3.30821715  -4.27187940  -0.14883118
H    3.08010543  -3.70672346  -1.02829919
H    2.58771530  -5.05406235  -0.03065325
H    4.28523684  -4.69804807  -0.24216858
C    3.26733347  -3.34615680   1.08119573
N    3.23689371  -2.65691425   1.99700667
C    1.54981852  -0.57806035  -0.19038816
H    0.88783673  -0.16067499  -0.92009341
H    0.98029706  -0.95829156   0.63178495
H    2.11239087  -1.37350753  -0.63274010
C    2.51258069   0.51331669   0.31318423
N    3.22940089   1.32589651   0.68811677
C   -2.14355128   3.80682284  -3.08579671
H   -1.47246329   4.55139623  -2.71142850
H   -2.92293848   4.27879300  -3.64677696
H   -1.60832779   3.13000477  -3.71853063
C   -2.75800418   3.03002021  -1.90654894
N   -3.21549230   2.45165535  -1.02854536
C    6.24622198  -0.56761895   1.06598105
H    5.92775155  -1.15691978   1.90036783
H    5.99925958   0.45895047   1.23937049
H    7.30490898  -0.66416599   0.94449196
C    5.53630343  -1.05800414  -0.20961215
N    5.00773680  -1.42311820  -1.15934927
C   -3.60167115  -3.72061955   0.45335894
H   -4.26301011  -4.53591129   0.66031385
H   -3.91969312  -2.85628862   0.99805440
H   -2.60778241  -3.98342694   0.75003475
C   -3.62258035  -3.41295260  -1.05544982
N   -3.63814821  -3.18388057  -2.17882652
C   -1.25926296  -0.93361399  -3.95657421
H   -0.59054109  -0.19369622  -4.34417316
H   -2.17306395  -0.91495487  -4.51291824
H   -0.80940118  -1.90068958  -4.04194563
C   -1.55399742  -0.63353120  -2.47512833
N   -1.77344061  -0.41010591  -1.37212453
C    3.54381390   0.08485185   4.04268374
H    3.92368961   0.57978448   4.91195718
H    4.04358704   0.45753017   3.17306500
H    3.71454578  -0.96794912   4.12847323
C    2.03204816   0.35138750   3.91970777
N    0.90646985   0.54983541   3.82814656
C   -0.07203189  -2.82165946   3.07941623
H    0.19950102  -3.56881951   2.36323055
H   -0.54599572  -3.28714930   3.91821096
H    0.80625157  -2.30572809   3.40703198
C   -1.04475607  -1.81890383   2.43142794
N   -1.76899343  -1.07230669   1.94897121
C    1.88670768   3.92572952  -1.51838054
H    2.60026598   3.55974987  -0.81000661
H    1.13454657   4.49011729  -1.00787177
H    2.38081175   4.55260149  -2.23097566
C    1.23112521   2.73794102  -2.24705749
N    0.74301427   1.85357848  -2.78959060
C    1.01195167   3.64557258   2.27518495
H    2.04785323   3.44653888   2.09575884
H    0.79264420   3.48819657   3.31057672
H    0.79330097   4.66002957   2.01447824
C    0.15135864   2.69847474   1.41845552
N   -0.48939199   1.99331735   0.78058152
C   -6.15667735  -0.59845207  -2.08683085
H   -5.65062946  -1.27849585  -2.73979039
H   -6.28728720   0.34102464  -2.58203149
H   -7.11345801  -1.00001792  -1.82565134
C   -5.31997709  -0.39388656  -0.81023944
N   -4.69701571  -0.24157824   0.14024089
C   -2.15489600   1.27564643   5.10561543
H   -1.76589919   0.27891180   5.09552930
H   -2.96109763   1.33680148   5.80647069
H   -1.38139436   1.95751473   5.39135995
C   -2.66769799   1.64080169   3.70016328
N   -3.04950238   1.91267637   2.65374026
Na  -2.54245380   0.74950548   0.57413212
