91
Energy:   -775.98885927
C    2.18027168   3.04494619  -4.73580851
H    2.23434067   3.90279193  -5.37305055
H    2.39914499   2.16467499  -5.30336132
H    2.89187209   3.14420848  -3.94292079
C    0.76326363   2.93435839  -4.14296913
N   -0.29176327   2.85202074  -3.70157326
C    0.92457488   4.72148272   2.27549118
H    1.13855935   4.98398215   1.26050109
H    1.26480399   3.72496816   2.46549637
H    1.42573739   5.40089705   2.93285820
C   -0.59438048   4.80006720   2.51673606
N   -1.72531179   4.85857692   2.69635384
C    0.45529298  -0.93458960   0.93202911
H    1.13118138  -0.91600262   0.10273448
H   -0.54249741  -0.76939900   0.58270763
H    0.51062231  -1.88729470   1.41596168
C    0.83895901   0.17209321   1.93185586
N    1.12461581   0.99606887   2.67627232
C    2.19896554  -4.35758136   1.04337373
H    2.59184353  -5.35284367   1.04332062
H    1.22212677  -4.35975919   1.48004338
H    2.84269885  -3.72004837   1.61263483
C    2.11293760  -3.83958321  -0.40434071
N    2.04888589  -3.45391003  -1.48222992
C    4.67982376  -1.68663741  -2.45012387
H    4.68766870  -1.91342619  -1.40446355
H    5.66464161  -1.40777131  -2.76199979
H    4.36225615  -2.54813225  -2.99955679
C    3.70818961  -0.52167916  -2.71545263
N    2.98476382   0.34568521  -2.91300196
C   -3.71359294  -1.17304330  -0.39328455
H   -2.81541454  -1.28205458   0.17793544
H   -4.48327633  -1.78223490   0.03259358
H   -4.02191169  -0.14849979  -0.38106877
C   -3.45478074  -1.61394561  -1.84594466
N   -3.26208329  -1.94221743  -2.92751614
C   -1.89811102  -4.30834050   3.09460654
H   -2.33469031  -4.77789366   2.23797446
H   -2.37289750  -4.67246416   3.98167523
H   -0.85284561  -4.53413457   3.13116276
C   -2.09082675  -2.78349169   2.99818680
N   -2.23431237  -1.64817244   2.92639792
C   -4.17035062   0.88441831  -4.93426325
H   -3.60813745   1.32714374  -5.72975726
H   -5.20737112   1.11726064  -5.05784335
H   -4.03857959  -0.17728372  -4.95227085
C   -3.67663392   1.44016403  -3.58556368
N   -3.30903940   1.85394197  -2.58139555
C   -2.63581905   1.63911848   3.26857915
H   -3.05574685   2.57828963   3.56271921
H   -1.74825773   1.45187709   3.83609536
H   -3.34560175   0.85896732   3.44877847
C   -2.28730464   1.67973626   1.76908327
N   -2.02781982   1.70997805   0.65264042
C    3.50706176   2.11196309   0.10234548
H    4.17970514   2.88539432  -0.20466461
H    3.79465851   1.18754017  -0.35331828
H    3.54188681   2.01085116   1.16698753
C    2.07490921   2.47480449  -0.33226375
N    1.00860654   2.74495640  -0.65585008
C   -3.69115877   6.27009636   0.20224366
H   -4.62648917   6.20932586  -0.31386114
H   -3.32651896   7.27526192   0.16250564
H   -3.82764411   5.98029780   1.22316855
C   -2.67335224   5.32796508  -0.46712807
N   -1.91554901   4.62650551  -0.96550574
C    4.23640570  -0.85635156   3.73759996
H    4.05213093  -1.78789736   4.23071801
H    3.54450256  -0.12163386   4.09307012
H    5.23574379  -0.53480550   3.94455554
C    4.05914679  -1.03585251   2.21840323
N    3.92716947  -1.16949912   1.08729222
C   -1.13868664  -4.80893950  -2.61174731
H   -0.13601291  -4.72580299  -2.97593669
H   -1.80127281  -4.28486078  -3.26842087
H   -1.41902409  -5.84076624  -2.57120612
C   -1.22468228  -4.19781524  -1.20081433
N   -1.28870995  -3.74280545  -0.15031059
C    0.12124533  -0.85168516   5.56250989
H   -0.93073743  -0.83723888   5.36751306
H    0.53431565   0.11495055   5.36279161
H    0.29047901  -1.10698594   6.58773209
C    0.79723284  -1.89626943   4.65504937
N    1.30053627  -2.67400990   3.97940377
C    0.22465043  -1.53067852  -3.96189207
H   -0.63185479  -2.01637031  -4.38070286
H    0.88959862  -2.26547943  -3.55839409
H    0.72812331  -0.97474815  -4.72501432
C   -0.22427603  -0.57420386  -2.84152550
N   -0.55852219   0.13793501  -2.00736167
Na  -1.22230130   2.40156865  -1.50500977
