12
Energy:    -96.94625180
O   -0.27858026   0.41541441   1.50476182
H   -0.73438168   0.83530981   2.23425806
H   -0.57172627   0.89556929   0.73032747
O   -0.94037112   1.25781443  -1.00041972
H   -0.86670601   0.32042205  -1.17958673
H   -0.13654361   1.63448108  -1.35849154
O   -0.44071151  -1.45699857  -0.63858244
H   -0.85202445  -2.32051534  -0.60126899
H   -0.46370486  -1.14099284   0.26465813
O    2.03636001  -0.03080476  -0.06042112
H    1.55339405  -0.75096449  -0.46581685
H    1.48929596   0.24001119   0.67687902
