12
Energy:   -103.30357081
O    0.10795312   1.40186545   1.06175817
H    0.19791173   0.53664557   1.46117505
H   -0.67420848   1.77407800   1.46908223
O    0.21685349   1.24846488  -1.51050389
H    1.01051366   1.74656403  -1.70603554
H    0.14681298   1.27349923  -0.55619815
O   -0.56909309  -1.33590115  -1.17173773
H   -0.43856120  -1.88493461  -1.94488424
H   -0.35919962  -0.45026707  -1.46809707
O    0.15527432  -1.11822724   1.61905602
H   -0.18027635  -1.34598468   0.75201268
H    0.43462554  -1.95294072   1.99515195
