12
Energy:    -98.21046991
O    1.01387832  -0.96579843  -1.28003427
H    1.56782295  -0.65257690  -1.99506537
H    0.12694662  -0.71091071  -1.53423156
O   -1.45738729   0.55434195  -1.57640863
H   -1.15439891   0.88365785  -0.73025207
H   -2.39274478   0.75707188  -1.59186144
O    1.11940397  -0.73689123   1.39143684
H    1.99633550  -0.95880519   1.70444982
H    1.15210402  -0.90169691   0.44909845
O   -0.67189920   1.22958860   1.51040975
H   -0.01958191   0.53206041   1.44584640
H   -1.28266123   0.92559616   2.18181885
