12
Energy:   -100.52383623
O    0.13926553  -0.91936540  -1.19535952
H    0.50488337  -1.68330546  -1.64139880
H    0.68440316  -0.81293142  -0.41579002
O   -1.51192731  -0.83807000   1.09701217
H   -1.22675387  -0.97987534   0.19434988
H   -2.06973528  -0.06143083   1.05326619
O    1.19229478  -0.16544307   1.17670176
H    0.33810859  -0.43380510   1.51519786
H    1.05042621   0.72008330   0.84211512
O    0.23368915   1.81207257  -0.58460953
H    0.53041374   2.43152190  -1.25129453
H    0.10581477   0.99105569  -1.05980557
