12
Energy:    -96.72910360
O    1.23515275  -1.01280751   0.51007416
H    0.75217273  -0.86419824  -0.30286952
H    1.90118893  -1.66014971   0.27860984
O   -0.60645972  -0.25663436  -1.40375399
H   -1.12085572  -0.24679168  -0.59657884
H   -1.25208844  -0.38757986  -2.09819526
O    0.86642480   1.84242986  -0.09615756
H    1.32976570   1.13805547   0.35705737
H    0.32402554   1.39421152  -0.74510687
O   -1.45589591  -0.23518070   1.18097933
H   -1.41506586   0.68162510   1.45306731
H   -0.57978237  -0.57744341   1.35849880
