12
Energy:   -100.84840826
O    1.35542870  -0.85053680   0.42907020
H    1.07770627  -0.18694541   1.06053561
H    0.82036667  -1.61694592   0.63536498
O    0.90497020   0.11345909  -2.05305588
H    1.22293281  -0.22909696  -1.21771943
H    1.61810145  -0.05550413  -2.66878886
O   -1.67898088   0.06262359  -0.33072852
H   -0.90666359   0.07631303  -0.89603414
H   -2.41535737  -0.04357658  -0.93297684
O   -0.34674348   0.77126105   2.05517675
H   -0.87053775   1.41610360   2.53062339
H   -0.90936971   0.48998293   1.33367402
