12
Energy:    -97.28793810
O   -1.34151346  -1.06690732   0.61461164
H   -1.07797637  -0.97140529  -0.30062572
H   -1.82547794  -0.26450880   0.80997501
O   -0.44334216   1.91951198   0.13655724
H   -0.46611505   1.42435516  -0.68230353
H    0.24076085   1.49534616   0.65455172
O    0.19018047  -0.27587421  -1.59646581
H    0.66404227  -0.45740203  -2.40809041
H    0.86973952  -0.24791675  -0.92293057
O    1.22588350  -0.24663247   1.01768712
H    0.35646314  -0.63706494   1.10658353
H    1.80873809  -0.85175527   1.47631417
