12
Energy:    -96.90210677
O    0.29372168  -0.83241776   1.44089907
H    0.21633346  -1.29440923   0.60614954
H   -0.47338470  -0.26067754   1.47077827
O    1.64834435   0.91777305  -0.20807002
H    1.32478077   0.42168628   0.54388502
H    2.57238370   1.07378639  -0.01302395
O   -1.90291658   0.62071031   0.52726527
H   -1.68543341   0.34736523  -0.36392235
H   -2.54174816   1.32437124   0.41330317
O   -0.16947789  -0.79799126  -1.43408848
H    0.42281767  -0.08614618  -1.19181921
H    0.36574644  -1.38385348  -1.96937553
