12
Energy:    -97.70631525
O    0.53308348   1.61043846   0.50752677
H    0.02909766   0.95743826   0.99314069
H    0.97769412   2.12182472   1.18357213
O    1.22894953  -0.91558662  -0.64891500
H    1.42187629  -0.01261414  -0.39662191
H    0.56126687  -0.83695732  -1.33027332
O   -0.56871410  -0.78725405   1.39149813
H    0.10497055  -1.02948657   0.75612089
H   -0.66821328  -1.56303875   1.94330412
O   -1.15874064   0.02054397  -1.73676032
H   -1.56001468  -0.41490425  -0.98469926
H   -0.92013765   0.88883530  -1.41215191
