12
Energy:    -99.48322183
O   -1.84823786  -0.77042378   0.35357065
H   -1.37782298  -0.08996484   0.83514861
H   -2.31966683  -1.25942206   1.02800911
O   -0.12243497   1.21302897   1.14985968
H   -0.13142720   1.44998738   0.22249692
H    0.65244544   0.65983635   1.24870365
O   -0.07230830   0.12596562  -1.60299880
H   -0.58147743   0.21850080  -2.40824154
H   -0.62000899  -0.41432769  -1.03349116
O    2.01169506  -0.48464547   0.37413862
H    2.91950306  -0.49369650   0.07076663
H    1.50682513  -0.20066715  -0.38789452
