12
Energy:   -101.66070999
O    0.63044889  -1.96004787   0.10136711
H    0.67489033  -1.08160814   0.47899186
H    1.54469525  -2.21148171  -0.02965372
O   -1.57254405  -0.60692945  -0.99233708
H   -2.33171236  -1.17823967  -1.10852637
H   -0.84565931  -1.20563019  -0.82079162
O    1.20801932   0.64580507   1.49964366
H    0.86702995   1.19968015   0.79737555
H    1.40362398   1.25459728   2.21192359
O   -0.33386146   1.85313291  -0.42351011
H   -0.87461256   1.06982499  -0.52474651
H   -0.33322005   2.25805028  -1.29084704
