12
Energy:    -98.18697163
O    0.52800674   1.77828352  -0.38055277
H    1.15834156   2.38542120  -0.76823009
H    0.14409605   1.32084335  -1.12861221
O   -0.59653786  -0.02786157  -2.00618188
H   -0.30213170  -0.77904251  -1.49112454
H   -1.52620294   0.05828216  -1.79515121
O    0.84645696  -0.02606592   1.69110069
H    1.66860645   0.22666269   2.11113679
H    0.69929352   0.64741941   1.02702819
O   -0.85736510  -1.96062885   0.57225385
H   -0.19713441  -1.40518712   0.98675568
H   -1.52205055  -2.08910689   1.24895060
