12
Energy:   -100.22464170
O    0.56874110  -1.33736678   1.38236793
H    1.42595108  -1.54367874   1.75500484
H    0.42424153  -0.41823423   1.60719468
O   -0.02432499  -1.27545035  -1.26186006
H   -0.60374860  -2.02425218  -1.40255815
H    0.27519677  -1.37033342  -0.35769427
O    0.03755928   1.28318295   1.53153756
H   -0.01301036   2.04966535   2.10265864
H   -0.19913210   1.61360209   0.66491640
O   -0.60893798   1.31308433  -1.74388403
H   -0.42967066   0.39211224  -1.55439661
H   -0.83814183   1.32670599  -2.67313743
