12
Energy:    -97.38998449
O    0.92496861  -0.62982758   1.35259019
H    0.32581994  -1.09177313   0.76619525
H    1.50601642  -1.31238395   1.68834618
O   -0.65903070  -1.55414511  -0.79427458
H   -0.25432157  -0.78690002  -1.19896871
H   -1.09514467  -2.00490639  -1.51735876
O    0.77118243   0.64800263  -1.37375107
H    1.31278493   0.38177500  -0.63076962
H    0.13562190   1.25887241  -1.00074602
O   -1.00002619   1.69310747   0.55967454
H   -0.43581359   1.14638640   1.10647621
H   -1.55231321   2.16598559   1.18224756
