12
Energy:    -96.70712636
O    1.17222839  -0.29489135  -1.59842994
H    0.22601247  -0.42689767  -1.53942478
H    1.40032163  -0.58451694  -2.48178850
O   -1.42096134  -0.06393816  -0.78029416
H   -1.37990181  -0.69275454  -0.05978329
H   -1.05597283   0.74251857  -0.41609259
O    0.64378226   1.42099710   0.49321637
H    1.08475548   0.92546673  -0.19687357
H    1.25271345   2.12768401   0.70775837
O   -0.65059985  -1.24986358   1.68514478
H   -0.13475607  -0.44455620   1.72535752
H   -0.99807551  -1.35675443   2.57062028
