12
Energy:    -97.51069091
O    0.62637787   0.44232286   1.13167621
H    1.38160960   0.80742487   1.59271569
H    0.95212188  -0.36927154   0.74252686
O   -0.12275475   0.67153673  -1.52398703
H    0.24577545   0.86939500  -0.66301697
H   -1.07024151   0.68756102  -1.38891708
O   -2.15814796   0.72610651   0.92400561
H   -2.54369287  -0.08465710   1.25604376
H   -1.22078715   0.63343247   1.09429386
O    1.34302991  -1.53198563  -0.64461325
H    0.84020930  -0.96782212  -1.23208480
H    1.89659557  -2.05221929  -1.22698242
