12
Energy:    -97.93567462
O    0.21875246  -1.04429010  -2.05946553
H    0.36026368  -0.85790354  -2.98761771
H    0.24122412  -0.18605413  -1.63619507
O   -0.66155363   1.28208470   1.69301372
H   -1.54784370   1.45399571   2.01108346
H   -0.62068557   0.33038496   1.59904963
O    0.60849804   1.14701487  -0.62045883
H    0.00663350   1.33548992   0.09958845
H    1.47150224   1.10887642  -0.20814699
O   -0.21124678  -1.28017871   0.92873743
H   -0.22823983  -1.38517755  -0.02253453
H    0.38756852  -1.96137735   1.23471210
