12
Energy:   -101.73779631
O   -0.28559156   0.19754075   1.87444187
H   -0.18186477   0.91263331   1.24665589
H    0.44834128   0.30151276   2.48005251
O   -0.91552664  -1.73502942   0.10777964
H   -0.84458252  -1.13518739   0.85033490
H   -1.44726307  -2.46046685   0.43523765
O    0.89591572  -0.41491974  -1.86124107
H    0.41739830  -0.93894103  -1.21885909
H    1.45191917  -1.04543055  -2.31900533
O    0.18713107   2.01278658  -0.14567438
H   -0.18523072   2.78765992  -0.56656610
H    0.52382797   1.48487147  -0.86967209
