12
Energy:    -98.02322519
O   -0.83200004  -1.74541622  -0.68934256
H   -1.34129920  -2.47118981  -0.32865031
H   -1.11314789  -0.98140499  -0.18587997
O    1.47595708  -0.63270620   0.45094629
H    0.92146199  -1.24983265  -0.02646548
H    0.88139114  -0.20063831   1.06416773
O   -0.87983799   0.81045562   1.18988362
H   -0.49051254   1.27951312   0.45188456
H   -1.25395494   1.49803144   1.74079908
O    0.59736721   1.49274945  -1.00091718
H    1.08951427   0.73155166  -0.69334434
H    0.74766725   1.50979637  -1.94608973
