12
Energy:    -97.89487245
O   -1.72808476   0.67788938  -1.02159704
H   -2.22179357   0.72895359  -1.84005652
H   -1.15289409  -0.07875085  -1.13510074
O    0.50348594  -1.32134438  -0.82037075
H    0.91366055  -2.11393028  -1.16648666
H    0.46898197  -1.46252518   0.12573142
O    0.51835189  -0.48516951   1.95774477
H    0.26416764  -0.22735221   2.84383306
H    0.57814256   0.33961005   1.47567052
O    0.78972857   1.47665768   0.08269501
H   -0.11409164   1.55763111  -0.22190995
H    1.13475886   0.71828311  -0.38853101
