12
Energy:   -102.95989738
O   -0.93580747  -1.10769148  -1.72796590
H   -1.66465939  -1.70563403  -1.89371098
H   -1.04839921  -0.83901495  -0.81617214
O   -1.40379349  -0.42349528   0.87351367
H   -2.14491716  -0.32243851   1.47080344
H   -0.64756918  -0.12032967   1.37595497
O    1.52097636   0.60299068  -0.96449780
H    0.88884144   0.05305113  -1.42731934
H    2.00337343   1.05098574  -1.65935414
O    0.91652373   0.72368576   1.80584501
H    1.16248264   0.64452638   0.88417812
H    1.29948936   1.55503941   2.08588124
