12
Energy:    -96.94589617
O    0.37556929   0.86303239   1.40112101
H    0.96505218   1.45762999   1.86501266
H    0.73526761   0.81094860   0.51560633
O    0.88091105   0.34606621  -1.27251750
H    1.05050250   0.77299073  -2.11228296
H   -0.07353708   0.30579317  -1.21219593
O    0.32541319  -1.87315745   0.48298437
H    0.72671938  -1.46272779  -0.28300041
H    0.34908439  -1.19536188   1.15845805
O   -1.72741685   0.25669677  -0.53487706
H   -2.04336335  -0.63431805  -0.38486955
H   -1.48473764   0.57485200   0.33467219
