12
Energy:    -97.71329663
O   -0.90551114   0.24623991   1.45563936
H   -0.94051405   0.44884788   2.39049585
H    0.00454943  -0.00543432   1.29853527
O    1.61371704  -0.26560995   0.54064055
H    1.45420454   0.58079542   0.12304559
H    1.29174236  -0.90912423  -0.09059120
O   -0.47163948  -1.22285326  -1.20720544
H   -0.87878754  -1.90075745  -1.74656451
H   -0.99930343  -1.20227477  -0.40884516
O    0.12809854   1.62384704  -0.86818248
H   -0.04548244   0.80790973  -1.33759466
H   -0.45020327   1.59002402  -0.10617535
