12
Energy:    -97.09415419
O   -0.71743666   0.31192602   1.48752405
H   -1.28565957   0.20035081   2.24969564
H   -0.66723324  -0.56005259   1.09590591
O   -0.78342636   0.58775881  -1.44067543
H    0.16215950   0.71071998  -1.35713041
H   -1.13474388   0.84130685  -0.58714087
O   -0.34607360  -1.84578510  -0.28459631
H   -0.17802381  -2.58555924  -0.86831315
H   -0.51184759  -1.10892855  -0.87263819
O    1.78952521   1.03457531  -0.11832592
H    1.16605011   0.90027619   0.59544883
H    2.53806002   1.46509869   0.29468389
