12
Energy:    -97.08618694
O   -1.20174620   0.92161705   1.07547051
H   -0.34690108   0.51890957   1.22810846
H   -1.31941487   1.52145734   1.81206916
O    1.05821054  -0.51373304   1.14524945
H    1.42793483   0.03543690   0.45391149
H    0.52469601  -1.15822396   0.68024885
O   -1.02691605  -1.12942628  -0.76696648
H   -1.73751427  -1.75589685  -0.90414023
H   -1.40623625  -0.45617013  -0.20209996
O    1.39594500   0.82337997  -1.21241079
H    1.87951720   0.85405709  -2.03790985
H    0.62929196   0.28298272  -1.40331853
