12
Energy:   -114.90376532
O    1.13449439  -1.58008587   0.16133394
H    1.50721058  -2.29636218   0.67539885
H    0.50071291  -1.16785338   0.74837504
O   -1.18989407   1.59091031  -0.17574419
H   -1.98032528   1.67446500  -0.70910051
H   -0.53195229   1.23888058  -0.77526028
O    0.61265278   0.29732738  -1.76899055
H    1.29401746   0.26619477  -2.44055944
H    0.84115823  -0.40702691  -1.16244118
O   -0.63331666  -0.25514965   1.74295610
H   -0.90170823   0.42998316   1.13075446
H   -0.61151445   0.17977437   2.59536306
