12
Energy:    -98.47583191
O   -1.52353815  -0.37910345  -0.15642009
H   -0.86726286  -0.22223384  -0.83533578
H   -2.33029393  -0.55842516  -0.63934935
O    0.61333382   0.27701440  -1.64416231
H    1.10611610  -0.49869757  -1.37645276
H    0.86076776   0.94939768  -1.00941118
O    1.03208694  -1.45610123   0.75678496
H    0.10322269  -1.61333001   0.58730886
H    1.07597368  -0.53641301   1.01847062
O    0.27225333   1.28501166   1.02946180
H   -0.02313800   2.07702214   1.47856670
H   -0.53474380   0.82503068   0.79836666
