12
Energy:    -96.73349661
O   -0.70698550   1.04104411   1.29813029
H   -1.52075806   1.46178170   1.57559372
H   -0.99065117   0.29277348   0.77290967
O    0.85932862  -1.65024213  -0.85441119
H    1.47258993  -2.01770144  -0.21792390
H    1.17478002  -0.75911524  -1.00479444
O    1.61149905   1.56271561  -0.21330196
H    2.32157921   1.69660200   0.41446587
H    0.82866946   1.46072235   0.32799931
O   -1.78489142  -0.86524916  -0.34808902
H   -0.95854668  -1.31116085  -0.53396259
H   -2.29511927  -0.96037040  -1.15235970
