12
Energy:    -96.93408089
O    1.21321605   0.79840822   0.84147465
H    1.90217586   0.41992491   0.29529097
H    0.59900781   1.18655637   0.21832049
O   -1.05370588  -0.61654340   1.72509966
H   -0.91355534  -1.20017051   2.47073299
H   -0.21456727  -0.17119185   1.60788087
O   -1.15577577   0.62786909  -0.78001879
H   -1.37302204   0.11966074   0.00149268
H   -1.97112570   1.07278824  -1.01128331
O    1.28952043  -0.62089334  -1.82738031
H    0.47629520  -0.18100009  -1.57960922
H    1.04140151  -1.53852691  -1.93970784
