12
Energy:    -97.14656628
O    1.04293430  -0.28702479  -1.30808285
H    0.80407102   0.58196473  -0.98554078
H    1.96527085  -0.20753059  -1.55140940
O    0.36171449   1.88907323   0.34578282
H    0.32216584   1.19520378   1.00397195
H   -0.37489395   2.46262520   0.55715454
O   -1.70217309  -1.05508368  -0.21477439
H   -2.24472721  -1.70593639  -0.66003569
H   -1.09249114  -0.75054540  -0.88691739
O    0.40535665  -0.57989399   1.52206076
H   -0.48731389  -0.78533125   1.24427182
H    0.94120304  -0.73953944   0.74513488
