12
Energy:    -98.23714952
O   -1.52192078  -1.12055337  -0.85591053
H   -0.65109938  -0.80968169  -1.10341956
H   -2.03304539  -1.07085817  -1.66369384
O    0.77349049   0.74133462  -1.13484991
H    1.42135783   1.25979222  -1.61203067
H    1.27293079   0.31534366  -0.43819867
O    1.44953751  -0.51060954   1.19615941
H    0.58992234  -0.14378486   1.40287966
H    1.86390174  -0.64604856   2.04832747
O   -1.01832325   0.79861698   1.04556175
H   -1.47348189   0.05914718   0.64276295
H   -0.50005059   1.17710851   0.33537200
