12
Energy:    -98.37464468
O   -1.26630412  -0.54952082   0.95088616
H   -2.03405258  -0.47479763   1.51764060
H   -0.69283083   0.16493368   1.22822171
O    0.61965643   1.49334637   0.93750707
H    1.30904714   2.15620878   0.89768602
H    0.34949294   1.37308071   0.02713368
O   -0.25044638   0.73157822  -1.52148997
H   -1.03629603   0.38760164  -1.09681093
H    0.38109093   0.01377081  -1.47517576
O    1.08074672  -1.53919004  -0.62032199
H    0.89339709  -2.44522879  -0.86573134
H    0.54621307  -1.38616398   0.15883695
