12
Energy:   -101.84926200
O    1.33831458  -0.04532277   1.05564315
H    1.46910613  -0.70153788   1.74011897
H    1.61355180  -0.48149739   0.24927598
O   -0.71860025   1.82664286   1.10844897
H   -0.38404155   2.65698174   0.76956896
H    0.02449356   1.22623871   1.04879759
O   -1.46364409  -0.06465323  -0.74673977
H   -1.33989381   0.68759159  -0.16790866
H   -2.04316705  -0.64994044  -0.25906789
O    0.80878597  -1.59212263  -1.37341088
H    0.68026971  -1.86052536  -2.28317755
H    0.03401569  -1.06986400  -1.16554364
