31
Energy:   -191.85769717
C   -2.62308542  -0.31362213   2.46430171
H   -2.41604091   0.43305968   1.72639994
H   -1.88085054  -0.27011237   3.23377775
H   -3.58873760  -0.13648516   2.88978668
C   -2.59952079  -1.70585460   1.80647691
N   -2.58197586  -2.74243495   1.31669644
C   -0.57020180   3.29518053  -0.33066708
H   -1.21447354   2.57046964   0.12166932
H   -1.07960928   4.23386808  -0.39600317
H    0.31197580   3.40875967   0.26411149
C   -0.17944172   2.82374422  -1.74369729
N    0.11149692   2.47273845  -2.79576251
C    1.19608849  -2.61425241   1.31954178
H    0.24243353  -2.14885804   1.45683883
H    1.96443265  -1.97003358   1.69307684
H    1.21963095  -3.54275796   1.85078776
C    1.42891438  -2.87491251  -0.18027434
N    1.60226384  -3.06898581  -1.29695562
C    2.70666620   0.51295417  -1.06122291
H    2.32440288   1.46853387  -0.76857573
H    2.79043666  -0.11662527  -0.20011238
H    2.04079400   0.06369079  -1.76810036
C    4.09463346   0.69036122  -1.70439757
N    5.12803817   0.82244883  -2.18327033
C   -1.06209211  -0.61653689  -1.31289396
H   -1.23523965  -1.66935655  -1.23232806
H   -0.41624392  -0.29965412  -0.52083051
H   -0.60284688  -0.40168153  -2.25514133
C   -2.40339987   0.13343232  -1.21269590
N   -3.40206447   0.69181849  -1.13809389
Cl   0.69361646   0.87110394   1.95755749
