31
Energy:   -191.30819885
C   -0.22370812  -1.64212555  -3.12694461
H    0.67299867  -1.21092502  -2.73339257
H   -0.02916701  -2.64696404  -3.43895818
H   -0.98051057  -1.64372219  -2.37054088
C   -0.70506042  -0.81421628  -4.33295713
N   -1.06344908  -0.19780019  -5.23088827
C   -0.36971474   3.15894116   1.75202420
H   -0.55634636   4.17048175   1.45731339
H   -1.22353266   2.55683067   1.52103284
H    0.48324717   2.78545650   1.22489587
C   -0.09987224   3.10720652   3.26731577
N    0.10103776   3.06868772   4.39551922
C    1.01351268  -3.36494144   0.46770118
H    1.71579467  -2.56210212   0.38314813
H    1.26913724  -3.97535253   1.30850643
H    0.02998194  -2.96574433   0.60263839
C    1.05039240  -4.21644118  -0.81494767
N    1.07785102  -4.85042145  -1.76993804
C    0.74801464  -0.45654584   3.47236813
H    0.71005988   0.13021694   4.36633069
H   -0.24506641  -0.61311230   3.10606764
H    1.32420944   0.05814731   2.73210493
C    1.40264687  -1.81648277   3.77835538
N    1.89005032  -2.82901763   4.00617679
C   -1.27398416   2.28311674  -2.48254405
H   -1.87054298   1.66526232  -1.84436410
H   -0.24713499   1.99358889  -2.40097501
H   -1.59788691   2.16703319  -3.49571270
C   -1.42710302   3.75614509  -2.06023836
N   -1.54110697   4.85288165  -1.74581257
Cl  -0.03474807   0.05191842   0.00671515
