31
Energy:   -190.40024388
C    1.63069359  -1.15453613  -3.24080199
H    2.32417983  -0.41683521  -2.89471766
H    2.15679034  -2.05609557  -3.47598675
H    0.90878726  -1.35197787  -2.47610133
C    0.91440996  -0.63453290  -4.50101404
N    0.38110424  -0.24736686  -5.43929919
C   -0.79441939   2.28821736   2.03104437
H    0.26133555   2.41157223   2.15378507
H   -1.29310485   3.19631225   2.29858049
H   -1.00945329   2.05064051   1.01015419
C   -1.28669580   1.14563180   2.93865781
N   -1.65321797   0.29492491   3.61441727
C   -1.18222058  -1.43299744   0.44048151
H   -1.84061685  -1.82485700   1.18738218
H   -1.34093623  -0.37939123   0.34238780
H   -0.16785077  -1.61565201   0.72786675
C   -1.46612499  -2.12253312  -0.90693781
N   -1.67750473  -2.63592378  -1.91015274
C    1.90162770  -0.74456546   3.06478358
H    1.99039295   0.31823873   2.97836509
H    0.86872915  -1.01041119   3.15049081
H    2.31856420  -1.20913379   2.19573851
C    2.66039835  -1.22295965   4.31658472
N    3.22533759  -1.57914586   5.24860757
C   -1.15769517   1.42588444  -2.42472317
H   -1.44935456   1.53202571  -3.44871975
H   -0.81766651   0.42607243  -2.25251531
H   -0.36803842   2.11388191  -2.20563234
C   -2.36382832   1.72190071  -1.51410954
N   -3.26184928   1.94229828  -0.83611630
Cl   1.58822699   0.77131383  -0.17249979
