31
Energy:   -191.16414621
C   -1.01584913  -1.40218926  -3.02741755
H   -0.48284423  -0.48616783  -2.88007203
H   -0.53143641  -1.97835524  -3.78786226
H   -1.02947765  -1.95794123  -2.11316752
C   -2.46055767  -1.09145911  -3.46085037
N   -3.53620884  -0.86010638  -3.78356082
C   -3.44405628   0.71251809  -0.39354652
H   -2.57399049   1.21958438  -0.75516716
H   -4.09230325   0.48682668  -1.21436218
H   -3.15204402  -0.19592352   0.09056273
C   -4.18359023   1.61502704   0.61152418
N   -4.73420688   2.28698598   1.35984501
C    2.74004734  -1.99011329  -1.24775467
H    3.72214130  -2.28429896  -0.94141102
H    2.01448378  -2.45301898  -0.61200714
H    2.64838090  -0.92632621  -1.17808832
C    2.50276608  -2.43152663  -2.70393181
N    2.32609940  -2.76017893  -3.78812188
C   -1.19835977   2.10081366   2.66025617
H   -1.17730020   1.03119123   2.67934893
H   -1.10926983   2.44132448   1.64980357
H   -2.12294092   2.44677068   3.07300613
C   -0.02618495   2.65227084   3.49302335
N    0.84655249   3.06285577   4.11305637
C    2.91852093   0.45380681   2.10899021
H    2.17381636  -0.21683403   2.48389839
H    2.54399532   0.95280510   1.23972019
H    3.15771671   1.17721866   2.86022903
C    4.18511488  -0.34032994   1.73927871
N    5.12815165  -0.93160085   1.46401169
Cl  -0.03716640  -0.33362900   0.26076661
