31
Energy:   -191.11864457
C    0.57280691  -1.96127868  -2.90337770
H    1.37453798  -1.68247199  -2.25192218
H    0.57821500  -3.02227696  -3.04177021
H   -0.35896473  -1.66283614  -2.47021173
C    0.75218481  -1.26504040  -4.26524254
N    0.88573982  -0.74665936  -5.27921281
C   -0.73460752   3.37043940   1.25028536
H    0.21956689   2.99316833   0.94677602
H   -0.87909809   4.34755263   0.83885941
H   -1.50510894   2.71728795   0.89727000
C   -0.79100101   3.44716507   2.78733869
N   -0.83298853   3.50429081   3.93174476
C    0.32963472  -3.32618376   0.99477693
H   -0.60315389  -2.80995109   0.90362088
H    1.13408994  -2.62404913   0.92579972
H    0.37081941  -3.82394118   1.94105409
C    0.45506393  -4.36332515  -0.13668462
N    0.54845168  -5.13552406  -0.97910918
C   -0.22816545  -0.12296175   3.58093090
H   -0.48989102   0.59171153   4.33302265
H   -1.05210707  -0.25357514   2.91088655
H    0.62273899   0.22849424   3.03564252
C    0.10971804  -1.46940768   4.24765280
N    0.36128766  -2.47189788   4.74405756
C   -0.00824052   2.07695040  -2.94540831
H    0.90432255   1.75884487  -2.48612878
H    0.07340521   1.97726204  -4.00762077
H   -0.81588525   1.47094758  -2.59133252
C   -0.27675382   3.55045495  -2.58723945
N   -0.47667417   4.64754607  -2.32056645
Cl  -0.23994354   0.05926448  -0.00389158
