31
Energy:   -191.26721939
C   -0.06853039  -1.62366638  -3.06079957
H    0.88203642  -1.13510303  -3.00952793
H    0.07428634  -2.65825594  -3.29345150
H   -0.56615948  -1.53557243  -2.11766446
C   -0.92597298  -0.96458508  -4.15715902
N   -1.56437797  -0.47386909  -4.97344846
C   -0.43074238   3.07323986   1.78059208
H   -0.76589638   4.04698905   1.49010198
H   -1.05815335   2.33156524   1.33206860
H    0.57841036   2.93135706   1.45443398
C   -0.49779407   2.94343092   3.31364581
N   -0.54771710   2.84678226   4.45507398
C    1.18783760  -3.13529875   0.44036712
H    0.30549468  -2.57751570   0.67541864
H    1.94640013  -2.46969427   0.08476528
H    1.53689236  -3.63735551   1.31843254
C    0.86361035  -4.17347767  -0.64989028
N    0.62220842  -4.94644907  -1.46163647
C    0.95551029  -0.35624222   3.29604268
H    0.85017287   0.29341548   4.13969491
H    0.04577466  -0.35972579   2.73277716
H    1.75684133  -0.01011680   2.67720115
C    1.26313954  -1.78441434   3.78316550
N    1.49218351  -2.84775340   4.14585059
C   -1.18459409   2.22818939  -2.55018433
H   -1.36996433   2.12077369  -3.59851630
H   -1.51326843   1.34819172  -2.03785984
H   -0.13636341   2.36615546  -2.38563374
C   -1.95342413   3.45076067  -2.01556313
N   -2.52585304   4.36102057  -1.61751334
Cl   0.74801268   0.34722410  -0.19078365
