31
Energy:   -189.81398529
C   -1.35333273   0.54324826   3.04568983
H   -1.05006090  -0.47029900   3.20584076
H   -0.52514486   1.10859876   2.67234982
H   -2.15204573   0.56835713   2.33412382
C   -1.83224011   1.15217965   4.37664824
N   -2.18880842   1.60555675   5.36760727
C    1.84230133  -1.76466770   2.24067788
H    1.39731720  -2.55831796   1.67764274
H    1.25971047  -0.87473154   2.12448578
H    1.87590652  -2.03645164   3.27503917
C    3.27287737  -1.51208128   1.72954943
N    4.33800625  -1.32401920   1.34899107
C    1.98050049   0.42499923  -0.97787604
H    1.34110952  -0.42920400  -0.89777477
H    3.00239482   0.11125123  -0.93104382
H    1.80128612   0.91848947  -1.91021111
C    1.68791578   1.39572059   0.18130221
N    1.47007316   2.11846676   1.04436312
C   -1.93635557   1.77335843  -0.71364361
H   -2.57826921   2.59598245  -0.47671161
H   -1.28567068   1.57902117   0.11324290
H   -2.52855443   0.90483058  -0.91329074
C   -1.09665444   2.11912661  -1.95740660
N   -0.47145878   2.37656674  -2.88344468
C   -0.78563545  -1.31197412  -3.37663597
H   -1.72888317  -1.09038882  -2.92267135
H   -0.16247432  -0.44267553  -3.34681561
H   -0.31153771  -2.10914798  -2.84311534
C   -1.00729679  -1.73469777  -4.84079818
N   -1.17233372  -2.04943474  -5.93093350
Cl  -1.10264198  -1.58766252   0.18481889
