31
Energy:   -190.69031444
C   -0.44981221   0.45988975  -1.89101718
H    0.05496253   1.16463363  -2.51826412
H   -0.60299450  -0.45165034  -2.43002454
H    0.14460509   0.26531018  -1.02285478
C   -1.81136147   1.03757188  -1.46198693
N   -2.82509679   1.46768249  -1.14255441
C   -0.99247241   2.28448830   1.82856225
H   -2.01028390   2.45924154   1.54852426
H   -0.95751737   1.55030269   2.60615386
H   -0.44461921   1.93155932   0.97991798
C   -0.36639181   3.59760899   2.33387121
N    0.09975365   4.57528703   2.71009670
C    1.18905684  -3.15153876  -1.12112754
H    0.36900373  -2.80780097  -1.71632281
H    1.86891346  -2.34323855  -0.94982421
H    0.82211253  -3.51374826  -0.18354808
C    1.91896177  -4.28830341  -1.86045489
N    2.46240916  -5.13467637  -2.41091770
C    2.82774524   2.05609544   0.92781606
H    3.13393786   1.05591369   0.70246584
H    2.13238293   2.04158124   1.74093333
H    3.68320909   2.63812555   1.20043600
C    2.15662901   2.67881192  -0.31050021
N    1.65695247   3.14245264  -1.23248297
C   -2.49643921  -1.81269015   0.84487103
H   -1.80838721  -2.38498936   1.43135057
H   -3.48479485  -1.93228019   1.23698129
H   -2.22142821  -0.77923219   0.87998082
C   -2.46003666  -2.30429461  -0.61410117
N   -2.43293330  -2.67031648  -1.70037230
Cl   0.84393377  -0.83179663   1.59439264
