31
Energy:   -191.45108691
C   -0.59570420  -2.15995774  -2.60396958
H    0.39659670  -1.78198477  -2.73578591
H   -0.56795270  -3.22888457  -2.56492638
H   -1.00363406  -1.78016249  -1.69059787
C   -1.47670463  -1.71212114  -3.78502022
N   -2.13264951  -1.37868644  -4.66436610
C   -0.08730064   3.34355496   1.15199454
H   -0.54350730   4.20865934   0.71797832
H   -0.74300739   2.50443432   1.04795460
H    0.83627051   3.13864223   0.65206835
C    0.18377188   3.60107941   2.64591583
N    0.38559770   3.79281806   3.75820815
C    0.99347339  -3.06621322   0.93081746
H    0.16227405  -2.41739274   1.11258603
H    1.73826394  -2.54273942   0.36853521
H    1.40896468  -3.38365998   1.86435569
C    0.51983977  -4.29655679   0.13487407
N    0.16719800  -5.21260351  -0.45774196
C    1.39052894   0.17348448   3.17421671
H    1.45827583   1.00186842   3.84807916
H    0.43061223   0.17582383   2.70150800
H    2.15482673   0.25574390   2.42991746
C    1.57456941  -1.14053046   3.95594162
N    1.71159591  -2.11887432   4.53797134
C   -1.31610248   1.83544960  -2.82599432
H   -1.72515681   1.05837422  -2.21466086
H   -0.25586152   1.87705573  -2.68794672
H   -1.53428602   1.63287973  -3.85373966
C   -1.93930435   3.18552710  -2.42535712
N   -2.40330647   4.19072117  -2.12706451
Cl   0.81181841   0.24425110  -0.39575133
