31
Energy:   -192.00011901
C    0.25109833  -1.74764299  -3.05153507
H    1.16087979  -1.18835462  -2.98524487
H    0.47686174  -2.77248888  -3.26039119
H   -0.27711873  -1.68076791  -2.12341140
C   -0.62300127  -1.17383729  -4.18215300
N   -1.27380815  -0.74661287  -5.02394944
C   -0.90515507   2.98568966   1.59683553
H   -1.49394424   3.80293396   1.23581028
H   -1.31161298   2.06517240   1.23305121
H    0.10207312   3.09191845   1.25171828
C   -0.92239892   2.98143546   3.13673311
N   -0.93523775   2.97826802   4.28325685
C    1.39930638  -3.03839398   0.63585874
H    0.44554224  -2.59516439   0.83278939
H    2.08301506  -2.28298481   0.30905833
H    1.77197419  -3.49441803   1.52920071
C    1.25162102  -4.10720595  -0.46297246
N    1.14166257  -4.90298505  -1.28110224
C    0.90015139  -0.12932867   3.32832699
H    0.73317604   0.55828212   4.13095443
H    0.01929680  -0.19310701   2.72423542
H    1.71883118   0.21261632   2.73021654
C    1.22995688  -1.51932873   3.90341670
N    1.47551206  -2.55424696   4.33159714
C   -1.21716533   2.13008080  -2.61036527
H   -1.34842209   2.01085644  -3.66557018
H   -1.44360103   1.20833777  -2.11638578
H   -0.20343668   2.40470009  -2.40582293
C   -2.16136870   3.23305118  -2.09700737
N   -2.86437103   4.05426276  -1.71478908
Cl   0.81968321   0.40926269  -0.21235936
