31
Energy:   -190.96781801
C    2.07606155   2.82564876  -0.27596734
H    1.16352945   2.68597139   0.26502765
H    2.81314607   3.25200635   0.37197149
H    2.42372254   1.88101373  -0.63886621
C    1.82820255   3.77261354  -1.46484227
N    1.64366026   4.47767187  -2.35001371
C   -0.92420013  -2.69314786   2.21146316
H   -0.02879996  -2.70726648   1.62583582
H   -1.59753885  -1.96163371   1.81598734
H   -1.38647992  -3.65760608   2.17957523
C   -0.57846470  -2.33756163   3.66941564
N   -0.32104895  -2.07281152   4.75492753
C   -2.16126775  -2.37752827  -1.81208794
H   -2.38367503  -1.47717184  -1.27842749
H   -2.66350698  -2.36550198  -2.75681553
H   -1.10530683  -2.44672952  -1.97038139
C   -2.63811367  -3.59108145  -0.99263285
N   -2.99314714  -4.49462696  -0.38251129
C    1.43081302   0.71521982   3.10352519
H    1.37912952   0.20915639   4.04486933
H    1.92972303   0.09243407   2.39069575
H    0.44073292   0.92934711   2.75886595
C    2.21211779   2.03173790   3.27068678
N    2.79383471   3.01194546   3.39514618
C   -0.26512629   1.34352925  -3.31068507
H   -0.80314589   1.70063815  -2.45750964
H    0.17744435   2.17077885  -3.82516385
H    0.50254350   0.66977188  -2.99188543
C   -1.23262348   0.60864398  -4.25698989
N   -1.95296912   0.06148850  -4.96155685
Cl   0.22075341  -0.25694971  -0.13165630
