31
Energy:   -189.73859925
C    1.09675948  -1.60420029   0.11145344
H    1.38927888  -0.77276498  -0.49521608
H    1.96914159  -2.12284157   0.45036310
H    0.54090535  -1.25200232   0.95518437
C    0.22018496  -2.56129334  -0.71751579
N   -0.43246462  -3.27389263  -1.33472107
C   -0.67768167  -0.02690153  -3.29056212
H   -0.78509644   1.01912017  -3.09257006
H   -1.10136527  -0.58793060  -2.48394097
H   -1.18493568  -0.27163012  -4.20034252
C    0.81677221  -0.37270273  -3.42705070
N    1.92946105  -0.63016745  -3.52867265
C   -3.00338428  -1.34067545   0.68553324
H   -2.42769613  -1.33716539  -0.21639304
H   -3.17916114  -0.33326946   1.00038995
H   -3.93963245  -1.82774434   0.50917461
C   -2.23145874  -2.09462513   1.78430111
N   -1.65672509  -2.65597494   2.60238374
C    2.34492674   2.29849443  -1.36989099
H    2.13204551   2.43919977  -0.33076454
H    2.64972124   1.28664515  -1.53770167
H    1.46707841   2.50663749  -1.94518036
C    3.47608772   3.25272180  -1.79594846
N    4.31828848   3.96318746  -2.11316761
C   -0.47711295   0.70441938   3.45465154
H   -0.18179199  -0.31278724   3.30307183
H    0.21052761   1.35379843   2.95429526
H   -1.46020415   0.85309933   3.05927191
C   -0.47692630   1.01982868   4.96200583
N   -0.47678733   1.25466524   6.08429961
Cl  -0.86875506   1.42675218  -0.03674091
