31
Energy:   -191.19759533
C    0.74954101  -2.45137939  -2.49307089
H    0.72305045  -3.51930523  -2.43197395
H   -0.18242821  -2.05138741  -2.15198603
H    1.54336674  -2.07863869  -1.88004220
C    0.98649140  -2.02652115  -3.95421770
N    1.16291174  -1.71019488  -5.04210791
C   -1.25472289   3.21671517   0.54154794
H   -1.64933481   3.96656218  -0.11183638
H   -1.70484351   2.27295148   0.31439024
H   -0.19540342   3.14818772   0.40721498
C   -1.56356820   3.59443920   2.00221188
N   -1.79351758   3.87567191   3.08974257
C    0.82601865  -2.97658852   1.66887103
H   -0.07500305  -2.45709869   1.41749401
H    1.66216446  -2.32027956   1.54632384
H    0.77645253  -3.30500104   2.68601778
C    0.99072986  -4.19619348   0.74310975
N    1.11336484  -5.10424482   0.05383839
C   -0.24134234   0.50575748   3.44955672
H   -0.56758761   1.34361995   4.02960041
H   -0.92849683   0.33860441   2.64657624
H    0.73141845   0.70502908   3.05090101
C   -0.18285248  -0.74636707   4.34418684
N   -0.13930413  -1.67863071   5.01027963
C    0.07996482   1.81539282  -3.16466465
H    0.43304202   1.65438012  -4.16181638
H   -0.49801827   0.97157069  -2.85034181
H    0.91439819   1.94116601  -2.50678839
C   -0.79730063   3.08058670  -3.12875142
N   -1.45046464   4.02258106  -3.10201240
Cl   0.53127347   0.16861463  -0.02225314
