31
Energy:   -190.99978075
C    0.86300867  -2.28477166  -2.57575505
H    1.46769518  -1.61259218  -2.00354079
H    1.30280880  -3.26010661  -2.56173093
H   -0.11857480  -2.33001600  -2.15226252
C    0.77247499  -1.78333548  -4.02901532
N    0.70506854  -1.40999346  -5.11103364
C   -1.00272828   3.40812929   0.79995509
H   -1.10003937   4.32137411   0.25094268
H   -1.77723712   2.73094672   0.50591614
H   -0.04856946   2.96910049   0.59566668
C   -1.12123492   3.70024990   2.30734413
N   -1.20946851   3.91774698   3.42966379
C    0.96761801  -2.98636492   1.47519587
H   -0.07751495  -2.78736380   1.36119659
H    1.52596115  -2.10266097   1.24668033
H    1.16628253  -3.28290073   2.48390694
C    1.38230379  -4.11786298   0.51636959
N    1.69105620  -4.96031472  -0.19752016
C   -0.21996688   0.32293128   3.57064546
H   -0.43197368   1.14346519   4.22385095
H   -1.09391870   0.08574498   3.00068934
H    0.57613308   0.59110095   2.90791703
C    0.19721363  -0.90261926   4.40466363
N    0.50782349  -1.81509734   5.02562806
C   -0.57393532   1.58911978  -3.24283815
H   -0.24833418   1.34247815  -4.23180326
H   -1.32212728   0.89141964  -2.92927412
H    0.25842077   1.54504459  -2.57191356
C   -1.16369206   3.01170387  -3.23639534
N   -1.60279276   4.07088238  -3.23159837
Cl  -0.27176054  -0.00543817  -0.03155112
