31
Energy:   -191.24974564
C   -0.27403621  -2.47897380  -2.53875789
H    0.60465168  -1.92764695  -2.27637178
H   -0.03515058  -3.51977811  -2.60627935
H   -1.02372710  -2.33298639  -1.78939126
C   -0.80351315  -1.98460404  -3.89774748
N   -1.19773280  -1.61652329  -4.90957700
C   -0.64145790   3.46046102   0.79084290
H   -0.91918997   4.35498770   0.27355469
H   -1.43155979   2.74318046   0.71244207
H    0.24953144   3.05866351   0.35541684
C   -0.38693338   3.78364774   2.27488051
N   -0.19742831   4.02427494   3.37981396
C    1.13848694  -3.07132794   1.28571272
H    1.53067447  -3.37116043   2.23502278
H    0.16374816  -2.65067355   1.41925403
H    1.78537660  -2.34041676   0.84730456
C    1.04588757  -4.29718904   0.35819457
N    0.97694313  -5.20989835  -0.33238485
C    1.10362418   0.58473619   3.36635513
H    0.89675790   1.41008479   4.01512799
H    0.18300955   0.16890696   3.01357498
H    1.68467645   0.92245385   2.53375431
C    1.89007436  -0.49072845   4.13867108
N    2.47562226  -1.29146077   4.71369540
C   -1.33067284   1.50453982  -2.98164448
H   -1.53682945   1.25453812  -4.00139876
H   -1.87775743   0.84953683  -2.33622321
H   -0.28284298   1.39780983  -2.79306987
C   -1.75466105   2.96068404  -2.71429077
N   -2.07033954   4.04484960  -2.51523378
Cl   0.03476780   0.06001246  -0.02124802
