31
Energy:   -191.16971106
C    2.00175358  -1.77761005   2.36321708
H    2.32997242  -2.78537767   2.51010814
H    2.32122183  -1.43509619   1.40117582
H    0.93393589  -1.73852987   2.41922788
C    2.60642865  -0.87638655   3.45581228
N    3.05663673  -0.20538470   4.26929907
C    0.61679716   2.21853939   2.75221950
H    1.19995114   2.04715007   3.63282004
H    1.25090617   2.17917733   1.89125754
H   -0.13932045   1.46560373   2.67301642
C   -0.04690863   3.60553083   2.83794800
N   -0.54106776   4.63820900   2.90177676
C   -1.87858275   3.00807856  -0.46198526
H   -2.17415077   2.15445209   0.11147927
H   -2.13069125   3.90075398   0.07137296
H   -0.82191704   2.97797724  -0.62766740
C   -2.61114801   2.99520064  -1.81652662
N   -3.15657614   2.98561245  -2.82504424
C    0.70887590  -3.20162313  -1.41098513
H    1.26148065  -2.30577760  -1.60331023
H   -0.21115112  -2.95540932  -0.92330887
H    0.50066182  -3.69774876  -2.33586640
C    1.53736340  -4.13128649  -0.50493077
N    2.15421000  -4.82346312   0.16966788
C   -1.56848068  -0.27196357  -3.22759228
H   -0.68855400   0.31535030  -3.06730615
H   -1.97840770  -0.56519094  -2.28372967
H   -2.29019034   0.30637792  -3.76569579
C   -1.20620579  -1.52760992  -4.04227574
N   -0.93647568  -2.46249571  -4.64884461
Cl  -0.10036722  -0.03705993   0.08467051
