25
Energy:   -464.51686893
O    1.03509900   0.70928069  -2.51562522
H    1.16299676   0.98226318  -3.42411549
H    1.89923922   0.79963592  -2.11396681
O   -1.72752874  -1.59756886  -2.03354969
H   -2.34589941  -1.02669850  -1.57752710
H   -2.20958094  -1.91073876  -2.79891373
O   -1.52045427  -1.65342537   1.40143541
H   -0.79107098  -1.38939899   1.96225796
H   -1.93593404  -2.37585236   1.87229384
O    1.63053858   1.65616107   1.54569971
H    0.83768313   1.77383478   1.02247415
H    1.73783354   2.48687840   2.00897972
O   -0.44700640   1.31462417  -0.21243353
H   -1.38849477   1.14425127  -0.24079848
H   -0.20026781   1.45172221  -1.12706791
O    2.88728608   0.21323397  -0.46158592
H    2.65396958   0.80801947   0.25117313
H    3.84232626   0.15946678  -0.42638353
O    1.04016866  -0.95776921   2.17103410
H    1.26917053  -0.02862446   2.14912484
H    1.55017419  -1.31354213   2.89873722
O   -2.93709161   0.10505289  -0.20554530
H   -3.81691603   0.37090509   0.06178115
H   -2.64392022  -0.48606873   0.48789368
K    0.49516335  -1.26421434  -0.59308806
