25
Energy:   -464.25551854
O   -0.48255125  -0.18735756  -2.67500540
H   -0.76918343   0.66525115  -2.34769481
H   -0.35198582  -0.05255961  -3.61362888
O   -1.23012752  -2.64988404  -1.58086947
H   -1.53403227  -3.38997043  -2.10636531
H   -1.28267240  -1.89850657  -2.17154940
O   -1.39614454  -2.14979087   1.16310263
H   -1.73830366  -2.76180231   1.81471676
H   -1.66917218  -2.51696408   0.32234607
O   -1.04676148   0.60179329   0.95333328
H   -1.43070611  -0.20787985   1.28985635
H   -0.46907835   0.90303576   1.65459430
O    1.64174315   1.58456753  -0.50980825
H    0.83524679   1.96988482  -0.85233714
H    2.34291192   2.05776479  -0.95777986
O    2.29842195  -1.11049245   1.83825913
H    2.07151496  -0.26594259   2.22746422
H    2.88337651  -1.51930653   2.47617062
O    1.27951626   1.42499345   2.26115349
H    1.54282690   1.69980807   1.38287319
H    1.50175197   2.16823847   2.82189405
O   -0.95723221   2.14976058  -1.30113526
H   -1.22533996   1.74523551  -0.47608402
H   -1.54530451   2.89800089  -1.40379619
K    0.75907404  -1.09888328  -0.32835272
