25
Energy:   -462.94282095
O   -0.04435957  -1.32492450  -3.56429603
H   -0.99320673  -1.23469966  -3.47608954
H    0.09566249  -1.48623363  -4.49735821
O   -2.26002629  -1.12056276  -1.69271924
H   -3.08794854  -1.58942164  -1.79735167
H   -2.48996344  -0.33551019  -1.19567475
O   -0.82999364  -0.77273102   1.52968249
H   -0.08122532  -0.47961176   2.04896944
H   -1.28347496  -1.39853679   2.09444233
O    1.73586978   2.11372547   1.06149348
H    2.19519908   2.94976989   0.98225857
H    1.23658640   2.03622134   0.24851066
O    0.14929854   1.48440099  -1.12080311
H   -0.74101281   1.55079826  -0.77559453
H    0.13216814   1.99697845  -1.92901270
O    2.38861033  -1.77294425   0.76789036
H    3.21999396  -2.21900635   0.92932673
H    2.25284135  -1.22997468   1.54440995
O    1.52134695  -0.01273472   2.71379436
H    1.66764452   0.80047679   2.23055952
H    1.80649961   0.18375529   3.60615723
O   -2.30144358   1.04446942   0.04195612
H   -1.91883135   0.51925145   0.74479737
H   -2.94181053   1.60376657   0.48167047
K    0.42342682  -1.25144958  -0.94009013
