25
Energy:   -463.43919992
O    1.13992000  -0.80646889  -2.03650576
H    1.79013478  -0.85043839  -2.73759012
H    1.65612170  -0.80102507  -1.23044247
O   -3.13554942  -1.13043819  -3.74463513
H   -4.02364956  -0.80243332  -3.88578331
H   -2.97064301  -1.70574821  -4.49166666
O   -1.42281570  -2.04015645   0.53224607
H   -1.81473216  -2.81136745   0.94196173
H   -0.80707910  -1.70810817   1.18557924
O   -0.22224833   1.78296876   1.88392023
H   -0.34561572   2.42879769   2.57956189
H    0.63645418   1.98908547   1.51462665
O    2.23398492   2.01947102   0.79360561
H    2.49546556   1.12504312   0.57483984
H    3.01107698   2.54795437   0.61176742
O    2.47458103  -0.71327794   0.37552856
H    3.21527852  -1.26802196   0.62018778
H    1.82242079  -0.86863377   1.05874408
O    0.41750964  -0.86497493   2.21329724
H    0.14738681   0.05325540   2.20240824
H    0.51908848  -1.07425416   3.14179914
O   -1.79930968   1.70607423  -0.37448488
H   -2.23108547   2.55549168  -0.46554255
H   -1.29303798   1.77970912   0.43452608
K   -1.49149540  -0.58312241  -1.69539051
