25
Energy:   -468.59457923
O    0.35657848   1.00828370  -2.57081818
H   -0.58117410   1.15974207  -2.45286772
H    0.55515920   1.38775335  -3.42685575
O   -1.71171996  -1.64235055  -1.80905372
H   -2.35530059  -2.24313807  -2.18467344
H   -2.11448764  -0.77781162  -1.89018620
O   -0.40363430  -1.18197821   1.60848003
H    0.38078441  -0.93522285   2.09840954
H   -0.77686374  -1.91078011   2.10424150
O   -1.57990458   1.22535806   0.89835272
H   -2.03832656   1.66695411   1.61324715
H   -1.37152170   0.35830237   1.24623612
O    1.12564742   1.32292091   0.33635748
H    0.21214328   1.52121733   0.54232001
H    1.32876866   1.88038318  -0.41478127
O    2.83663373  -1.98200241   0.48725276
H    3.60442735  -2.54021391   0.61023535
H    2.77755580  -1.47354209   1.29608510
O    2.04216669  -0.20352027   2.46652510
H    1.92114745   0.52368600   1.85598662
H    2.47013678   0.19015601   3.22684900
O   -2.29905564   1.06489138  -1.76702929
H   -2.19555124   1.21845212  -0.82791386
H   -3.06252975   1.58727245  -2.01290966
K    0.76555176  -1.14236506  -0.95024233
