25
Energy:   -464.25339748
O    1.21169743  -2.01171860  -2.38009247
H    1.01357574  -1.09512085  -2.57199924
H    1.70538678  -2.31513683  -3.14195863
O   -1.09559887  -2.18059254   2.27959249
H   -1.55174712  -1.34214447   2.20772137
H   -1.34063011  -2.51388380   3.14278915
O   -2.23437347   0.22083247   1.52928730
H   -3.16148293   0.44725736   1.60298711
H   -2.12554798  -0.05153416   0.61813129
O    1.62592756   1.82193037  -0.30190074
H    2.18203641   2.60017644  -0.33806493
H    0.94189211   2.04488697   0.32946104
O   -0.35586431   2.24702728   1.48590048
H   -1.03515598   1.58226675   1.59942627
H   -0.54952369   2.90457742   2.15399904
O    0.31549387   0.62452871  -2.38673599
H    0.20784232   1.23827468  -3.11334377
H    0.80964498   1.11478021  -1.72969718
O    2.33080468  -0.57516963   0.85259241
H    2.18946257   0.29344449   0.47607712
H    3.09744615  -0.47061359   1.41611769
O   -1.53942540  -0.79658021  -0.93926781
H   -2.22487254  -1.10972652  -1.52946562
H   -0.99995517  -0.22135778  -1.48178313
K    0.49826761  -2.37063586   0.16256804
