25
Energy:   -463.05155733
O   -0.21192559  -2.62200866   1.58494449
H   -1.02166330  -2.26079028   1.94560772
H   -0.16468899  -3.50878014   1.94220756
O   -1.14365861   0.55913955   0.88214286
H   -0.52245696   0.96314512   1.48804703
H   -1.70925929   0.02451516   1.43937214
O   -0.12427980  -0.77094118  -2.46039230
H   -0.53609876   0.08675033  -2.35550063
H   -0.69803998  -1.24019073  -3.06606214
O   -2.49660478  -1.28798956   2.47938579
H   -2.60556554  -1.11090357   3.41373045
H   -3.35918298  -1.58455428   2.18914441
O    2.64666993  -0.48757447  -2.20458651
H    1.84059561  -0.62084405  -2.70330010
H    3.34803540  -0.69371889  -2.82250463
O    1.33749837   1.21143154   1.95908404
H    1.59633358   1.72098973   1.19123859
H    1.77062266   1.64690760   2.69324736
O   -1.01313702   1.69832669  -1.63508607
H   -1.63924243   2.38056498  -1.87752119
H   -1.28037855   1.42860210  -0.75641522
O    1.63003444   1.75753296  -0.72291981
H    0.82035780   1.99649934  -1.17408570
H    2.21283974   1.45557155  -1.41961854
K    1.10785087  -0.87229964   0.06087093
