25
Energy:   -463.40326982
O    0.75589195  -0.03065388  -2.92811340
H    0.41403160  -0.71153978  -2.34866734
H    0.99717376  -0.49600932  -3.72902492
O   -2.23806450  -3.28754132  -0.06760253
H   -2.74069772  -3.62763808  -0.80782269
H   -2.08698553  -4.05030981   0.49060105
O   -0.26067590  -1.45297847  -0.79000127
H    0.42894512  -1.50236624  -0.12802275
H   -0.84040194  -2.18734374  -0.58786957
O    0.20663380   2.66018298   2.09268446
H    1.11707543   2.57631576   1.80932218
H    0.23106584   3.31866769   2.78697029
O    0.61013735   2.12656794  -1.32685564
H    0.72290027   1.43538545  -1.97937625
H    0.52981809   2.93046024  -1.84021500
O    1.30848328  -0.55068480   1.33199297
H    1.89701780   0.18261901   1.15275989
H    1.68953665  -0.98296046   2.09630177
O    2.48729229   1.86379433   0.68719934
H    2.02268064   2.04340346  -0.13017966
H    3.38324515   2.15835349   0.52369029
O   -2.99551344  -0.83595464   1.03778636
H   -2.83901928  -1.71616870   0.69578545
H   -3.84978048  -0.89315650   1.46579060
K   -0.99500530   0.85784569   0.53311294
