25
Energy:   -463.59758543
O    0.48670487  -0.13761783  -4.47549784
H   -0.13284796   0.56936268  -4.29504092
H    0.74811980  -0.00101876  -5.38612113
O   -1.21104224  -2.39714808  -0.21562492
H   -1.63870841  -3.24217459  -0.07683122
H   -1.44268389  -1.88122685   0.55664399
O   -1.72965691  -0.59653950   1.83876878
H   -1.07075509  -0.44701025   2.51679624
H   -2.56697476  -0.48898895   2.28994896
O   -0.57626706   0.94552320  -0.15210573
H   -1.12780863   0.51112507   0.49853396
H    0.19311398   1.23340006   0.33923079
O    2.43815350  -0.55293561  -0.51389089
H    3.38687240  -0.67854171  -0.53357376
H    2.29072432   0.04791649   0.21650163
O    1.65187854   1.20873556   1.48160991
H    1.27955435   0.82250460   2.27434706
H    2.11096653   1.99062444   1.78839950
O    0.34458791  -0.02318789   3.62365832
H    0.14144832   0.50635790   4.39472732
H    0.79755770  -0.79095273   3.97235212
O   -1.32707390   1.24981540  -2.80301758
H   -2.10386889   1.75108809  -3.05110442
H   -1.19691018   1.45181767  -1.87647328
K    0.23994340  -0.99860436  -1.97195877
