25
Energy:   -463.84514106
O   -0.38524339   0.22931139  -3.17439390
H   -1.07510397   0.70391696  -2.71063342
H   -0.19224677   0.77251091  -3.93853946
O   -1.00370686  -2.48866186  -2.61769531
H   -1.25451461  -3.24418476  -3.14921431
H   -0.91527286  -1.77196013  -3.24598657
O   -0.67734951  -0.43061597   2.06332809
H    0.22224336  -0.38899959   2.38772381
H   -1.13974174  -0.96807220   2.70641912
O   -1.12174280   2.16331383   1.19886827
H   -1.45394483   2.82123553   1.80961592
H   -1.12144744   1.34830871   1.70086271
O    1.31774370   1.36718592   0.17977411
H    0.56543939   1.86340319   0.50232412
H    1.82525958   2.00219828  -0.32561563
O    1.93870434  -2.22830142   0.64725595
H    2.52915970  -2.97813636   0.72034402
H    2.18109566  -1.65982686   1.37822446
O    2.04010761  -0.10689366   2.42982040
H    2.03330142   0.53305018   1.71802169
H    2.67745610   0.23706522   3.05568863
O   -2.07420920   0.92679708  -1.07206488
H   -1.88222532   1.52059173  -0.34626741
H   -3.02741001   0.95083968  -1.15610063
K   -0.02829458  -0.97458757  -0.64670060
