25
Energy:   -464.45911548
O    0.80822783  -0.42367584  -2.68476850
H    0.92817286  -0.58952016  -3.61983037
H    0.19303669   0.30872665  -2.64791336
O   -0.97008041  -1.78757109   0.29449510
H   -0.68892091  -1.61673688   1.19338155
H   -1.33814041  -2.67075394   0.32191308
O   -2.49365649   0.47659478  -0.17616094
H   -3.42404399   0.26918799  -0.26330088
H   -2.06309894  -0.37562998  -0.10859613
O   -1.09075286   1.52180119   1.98670879
H   -1.53131964   2.19923818   2.49975058
H   -1.72999560   1.27240805   1.31932313
O    0.86329371   1.68163841   0.01754877
H    0.28226785   1.87688873   0.75274814
H    0.35685761   1.92087138  -0.75867407
O    3.94200673  -2.22028189   0.09399408
H    4.67840675  -2.00716698   0.66716847
H    4.24576013  -2.96951830  -0.41846131
O    0.45352626  -0.73454227   2.38399339
H   -0.03225136   0.08972684   2.41284453
H    0.67873621  -0.91246888   3.29714970
O   -0.91591984   1.66491486  -2.12009934
H   -1.35622298   2.35052840  -2.62239314
H   -1.59544416   1.31612629  -1.54318940
K    1.66240799  -0.83299631  -0.18733765
