61
Energy:  -1084.36423258
O   -2.35412810  -0.84631642   1.68050862
H   -3.13549719  -0.64542358   1.16540061
H   -2.29607234  -0.13329348   2.31648005
O   -1.46259052   2.11874746   0.71888723
H   -2.17654203   2.34129036   0.12140940
H   -0.91991199   2.90669542   0.74838091
O   -1.20268834   1.39870918  -2.49287571
H   -0.33787148   1.75433845  -2.28829936
H   -1.04301102   0.76871961  -3.19561901
O   -2.36923834  -1.58505733  -1.82051124
H   -3.14299875  -1.30083983  -1.33394461
H   -2.02987595  -2.32682669  -1.31966873
O    3.12612646  -1.93932309   0.52984877
H    3.65124994  -1.14027547   0.48512654
H    2.41983606  -1.72846619   1.14052469
O   -0.67298041  -3.07017409  -0.25229420
H    0.16099193  -3.44634482  -0.53375037
H   -0.74137342  -3.30377961   0.67343940
O    1.87298852  -3.62644898  -1.17693776
H    2.41939328  -3.13065630  -0.56713181
H    2.36811487  -4.42811311  -1.34550932
O   -1.76106107   1.34688264   3.27993172
H   -2.34006284   1.91679030   3.78608787
H   -1.70235653   1.76597772   2.42136027
O    2.17986809   2.16928387   1.32037176
H    2.97377822   1.67483679   1.11675292
H    1.86449382   1.78973056   2.14056088
O    0.27426931   4.17194621   1.08269458
H    1.07496640   3.67024031   1.23568869
H    0.57157740   5.07756970   0.99502566
O   -4.25394257  -0.26728343  -0.24468897
H   -4.10119658   0.61346360  -0.58701219
H   -5.20483972  -0.37361706  -0.27151451
O    1.23216990   1.80616679  -1.25253705
H    2.02089284   1.50321858  -1.70239299
H    1.54330802   2.10635596  -0.39853976
O   -3.45197052   2.19226362  -1.20179270
H   -3.89086394   2.93149483  -1.62267466
H   -2.73653073   1.96758045  -1.79668364
O    1.28459697  -1.20562684  -2.34812310
H    0.65045019  -1.25978550  -3.06307523
H    1.47574521  -2.11718442  -2.12731327
O   -0.89530611  -0.91944439  -4.01606600
H   -1.53677999  -1.24791884  -3.38610755
H   -1.22761864  -1.20394799  -4.86745188
O    0.96576984   1.03945287   3.56904660
H    0.02211499   1.19821926   3.59229740
H    1.25288748   1.16668662   4.47326277
O    3.41381788   0.50746681  -2.31284121
H    2.76880671  -0.19408121  -2.40241137
H    3.82946746   0.56261694  -3.17332115
O    0.93040539  -1.14689552   1.92534973
H    0.39382106  -1.84443716   2.30183977
H    0.99287372  -0.49090505   2.61961629
O    4.24606234   0.59255659   0.30645539
H    5.19001879   0.72903276   0.38740189
H    4.08325099   0.59492895  -0.63679361
O   -0.97821946  -3.05835283   2.50016921
H   -1.62695546  -2.37450212   2.33367098
H   -1.38806941  -3.62366304   3.15490522
K   -0.38492791  -0.25803174  -0.30732629
