61
Energy:  -1093.74747279
O   -2.11858008  -0.38609783   2.49025504
H   -2.68316917  -0.40934755   1.71764230
H   -2.20292753   0.50768659   2.82231943
O   -1.41023542   2.50755685   0.34394106
H   -2.12916992   2.46635919  -0.28666800
H   -0.78851240   3.12526057  -0.04094132
O   -1.12760379   0.61637578  -2.34261972
H   -0.44767061   1.21447936  -2.65277263
H   -1.05655162  -0.14620505  -2.91677469
O   -2.62425387  -2.77384980  -1.50734700
H   -3.22815772  -3.51264908  -1.43179827
H   -1.96744583  -2.93042233  -0.82887807
O    3.47562375  -1.79439375   1.18687645
H    4.23947255  -1.93326774   1.74677007
H    2.74891832  -1.67342824   1.79802161
O   -0.65147317  -2.83671855   0.37987391
H    0.21324134  -3.21307099   0.21598522
H   -0.80475413  -2.98488430   1.31303184
O    1.95497290  -3.53469964  -0.29938113
H    2.38067508  -4.38155513  -0.43296735
H    2.58178006  -3.03013244   0.21903625
O   -1.96680737   2.33172330   3.01043658
H   -2.50727055   3.02981303   3.38030429
H   -1.89402397   2.55114730   2.08157301
O    2.32920625   3.08205221   1.37010572
H    2.57010571   2.24855636   0.96577421
H    3.14300226   3.40531709   1.75671630
O    0.69625026   4.00512817  -0.62969749
H    1.31175451   3.80094066   0.07435778
H    0.77204539   4.95200735  -0.74762443
O   -3.06832061  -0.44997914  -0.04107255
H   -3.39021828   0.29111894  -0.55428534
H   -3.11678454  -1.19544081  -0.63954561
O    0.85513397   2.34015240  -2.85168896
H    0.90229628   2.99454960  -2.15471559
H    1.69793458   1.88795907  -2.81373934
O   -3.35425266   1.88912141  -1.51903452
H   -3.89757936   2.30386877  -2.18911852
H   -2.63096848   1.49498672  -2.00663035
O    1.24952470  -1.41539459  -1.89655978
H    0.56937930  -1.68550523  -2.51354788
H    1.53259558  -2.22935705  -1.47994506
O   -0.94420511  -1.89558031  -3.48966353
H   -1.60027064  -2.27764277  -2.90670714
H   -1.15137124  -2.25487988  -4.35234416
O    0.60091448   1.36656954   2.69545017
H    1.16002048   2.08977297   2.41153269
H   -0.20339383   1.78905513   2.99682357
O    2.97693625   0.60455085  -2.51404660
H    2.42367762  -0.17460290  -2.45876392
H    3.64142460   0.38129398  -3.16584676
O    1.21608808  -1.27848849   2.53036870
H    0.52666771  -1.81561126   2.92079222
H    1.03723131  -0.39240963   2.84518033
O    2.59879633   0.64953053   0.18526070
H    3.02683409  -0.14070884   0.51471062
H    2.85167883   0.69274154  -0.73691884
O   -1.02339494  -2.77307402   3.12604779
H   -1.53914615  -1.96965432   3.05713248
H   -1.39439988  -3.23254433   3.87935663
K   -0.20074986  -0.04178568   0.27268114
