61
Energy:  -1097.85899544
O   -2.05058135  -0.61279671   1.81166548
H   -2.84686928  -0.54060876   1.28540862
H   -2.12382975   0.09159973   2.45563145
O   -2.10482521   2.97922592   1.21421156
H   -1.22079323   3.05614791   0.85532115
H   -2.65176564   2.75964245   0.45997610
O   -1.03273805   1.19164117  -2.01921411
H   -0.35380973   1.81150064  -2.28578946
H   -1.05240266   0.54083958  -2.72085677
O   -2.58258177  -1.90079470  -1.79332399
H   -3.19826362  -1.46585465  -1.20341309
H   -1.96152279  -2.33895381  -1.21148708
O    3.59050360  -2.20625197   0.75614126
H    4.34262815  -2.52253720   1.25664516
H    2.88315833  -2.14597312   1.39821678
O   -0.51870410  -2.71981287  -0.18830414
H    0.28144703  -3.16873337  -0.46117846
H   -0.69798943  -3.06038556   0.68810835
O    1.99852404  -3.45810060  -1.10536273
H    2.64779498  -3.13464921  -0.48081625
H    2.35510569  -4.29175406  -1.41212531
O   -1.87895313   1.57252396   3.48705749
H   -2.32775108   1.98071664   4.22745670
H   -2.02595016   2.17327320   2.75649328
O    2.61263942   2.57531950   1.96743412
H    2.94263736   1.85540729   1.42979146
H    3.39971986   3.01060900   2.29493874
O    0.45811191   2.72428807   0.26232502
H    1.20748715   2.89400786   0.83316982
H    0.76042824   2.97345093  -0.61103319
O   -4.09933967  -0.40407634  -0.00364613
H   -3.98597544   0.47417709  -0.36703477
H   -5.04742726  -0.51195194   0.07201508
O    1.14618254   2.87440266  -2.41309987
H    1.32762776   3.62315720  -2.98114573
H    1.91281233   2.30927835  -2.50873003
O   -3.42447533   2.04096436  -1.03022357
H   -3.85252463   2.64589019  -1.63608692
H   -2.61403605   1.79050774  -1.47372273
O    1.33231612  -1.02270439  -2.21328886
H    0.60078648  -1.11465745  -2.82373205
H    1.56893569  -1.92169293  -1.98511648
O   -0.97170207  -0.96376737  -3.72480708
H   -1.61329450  -1.37317606  -3.14431114
H   -1.25810483  -1.20347762  -4.60613806
O    0.70663200   0.76984416   2.89412258
H    1.30890239   1.51096570   2.82899893
H   -0.09344050   1.14260774   3.26447804
O    3.13657704   0.97940662  -2.45633810
H    2.55456636   0.22214702  -2.52000374
H    3.84206828   0.79260803  -3.07570894
O    1.39629819  -1.78087487   2.26307278
H    0.65055330  -2.33103029   2.50270881
H    1.24578567  -0.95724029   2.72697352
O    2.97735262   0.45434602   0.25205541
H    3.34877522  -0.41677050   0.39145816
H    3.20097480   0.66845050  -0.65369525
O   -1.03496336  -3.06064513   2.50016955
H   -1.52966031  -2.24665043   2.40572693
H   -1.55080071  -3.58531059   3.11243568
K    0.17533694  -0.05105775   0.23009718
