61
Energy:  -1083.89906812
O   -2.00531381  -0.59862281   2.16714759
H   -2.49203139  -0.43377575   1.35958131
H   -2.08066353   0.21642257   2.66338876
O   -1.43635830   2.58843976   0.73919593
H   -1.99582719   2.61548349  -0.03700961
H   -0.80421978   3.29440337   0.60411033
O   -0.91074799   2.23090299  -3.66807790
H   -0.94083460   2.69040371  -4.50723565
H   -0.44439016   1.41660949  -3.85693849
O   -2.56052357  -2.55323057  -1.78774465
H   -3.09040332  -3.11191122  -2.35637039
H   -2.23028021  -3.14410600  -1.11096004
O    3.11086379  -2.54972476   0.85378519
H    3.81654954  -2.89375835   1.40139851
H    2.46192255  -2.22200803   1.47644791
O   -1.22295001  -3.97122860   0.08501635
H   -0.30722633  -4.07311003  -0.17441026
H   -1.18739544  -3.78702619   1.02365217
O    1.39455036  -3.80027642  -0.88334368
H    2.06652271  -3.45511037  -0.29551258
H    1.83448129  -4.49995774  -1.36618805
O   -1.68140858   1.85993979   3.36477791
H   -2.31718699   2.38560336   3.85026269
H   -1.65937384   2.25469108   2.49304530
O    1.76453629   2.02047153   1.63162378
H    2.40080016   1.43665725   1.21863343
H    1.63933787   1.65729775   2.50835750
O    0.75336223   4.21778548   0.36629218
H    1.23869263   3.59572839   0.90826195
H    1.11596736   5.07257950   0.59883583
O   -2.62666238  -0.15350409  -0.44177843
H   -2.89111566   0.58759138  -0.98682321
H   -2.79482322  -0.92324308  -0.98533678
O    0.88158434   2.27557839  -1.57771956
H    0.27181186   2.43046795  -2.29912000
H    0.86538019   3.08764055  -1.07123726
O   -2.82645232   2.30503597  -1.68818390
H   -3.60677940   2.75897548  -2.00639831
H   -2.23281137   2.29315577  -2.43897091
O    0.02016896  -1.59740061  -1.80508196
H   -0.86512156  -1.94091790  -1.92544981
H    0.55080081  -2.36757265  -1.60137454
O    0.66510507   0.04420779  -3.89865408
H    0.41639467  -0.63937301  -3.27648668
H    1.58106029   0.23282098  -3.69449008
O    0.82696066   0.80123585   3.92722003
H    1.07728493   0.92417988   4.84289157
H   -0.04897026   1.18210905   3.86467023
O    3.00112463   0.91740030  -2.62660124
H    2.34026363   1.52561202  -2.29558297
H    3.67326432   1.47964795  -3.01174754
O    1.07637377  -1.41703506   2.27418922
H    0.40499374  -2.05990963   2.50264708
H    1.03362297  -0.76612235   2.97470107
O    2.83874255   0.06705093  -0.00733896
H    3.13204598  -0.82795147   0.16346983
H    3.07459123   0.22659747  -0.92120555
O   -1.06197596  -3.08407351   2.69567231
H   -1.50020547  -3.54703527   3.40971234
H   -1.55860807  -2.27191479   2.59573929
K    0.05748840   0.24137813   0.21581850
