61
Energy:  -1085.11838661
O   -1.74221927  -0.33918394   1.99217468
H   -2.52961824  -0.65221654   1.54692722
H   -1.97076366   0.53987991   2.29424430
O   -1.17084234   2.36934001   0.08697450
H   -1.77183013   2.31918766  -0.65634929
H   -0.50269923   2.99781221  -0.18659330
O   -0.85817105   1.52092962  -4.13440530
H   -0.75890345   1.83467017  -5.03326272
H   -0.88513234   0.56747731  -4.21461521
O   -3.51291685  -1.83690271   0.46287843
H   -2.92389195  -2.54540702   0.72230694
H   -4.38315398  -2.23554588   0.46455590
O    3.14138575  -2.52665332   1.49105188
H    3.71027020  -3.05932507   2.04680645
H    2.61376553  -2.01718478   2.10610518
O   -1.65009655  -3.59307237   1.29213667
H   -0.82620157  -3.53350578   0.80852449
H   -1.40813580  -3.41597722   2.20116041
O    0.75008212  -2.90672157   0.13923793
H    1.60070067  -2.99896409   0.56838971
H    0.96104615  -2.76295858  -0.78329024
O   -1.68460355   2.31761724   2.75595442
H   -2.31055573   2.99314780   3.01686471
H   -1.53618689   2.47520984   1.82355487
O    1.89566778   2.06706246   1.16747009
H    2.56525735   1.40955526   0.97888079
H    1.71686483   1.96618786   2.10239558
O    1.03103276   3.84046479  -0.67836896
H    1.47421658   3.36702600   0.02567342
H    1.41223010   4.71815821  -0.65439616
O   -1.95078572  -0.62996356  -1.43334071
H   -2.37578152   0.20795821  -1.61636405
H   -2.56847741  -1.09396510  -0.86819348
O    1.10522896   1.54492548  -2.18976520
H    0.46595204   1.61360547  -2.89887727
H    1.13295285   2.42135569  -1.80592497
O   -2.72310665   1.91836647  -2.14719046
H   -3.52745163   2.33227224  -2.46014895
H   -2.14576207   1.90810280  -2.91060369
O    1.20633618  -1.73345775  -2.25708903
H    2.00556093  -1.29255525  -2.54531920
H    0.58936447  -1.60734643  -2.97797300
O   -0.94709091  -1.20473548  -3.90359062
H   -1.38833545  -1.15457542  -3.05564070
H   -1.35219488  -1.95359737  -4.34100174
O    0.84877599   1.62774794   3.68726663
H    1.04075632   2.03996060   4.52955882
H   -0.04420876   1.90495551   3.48241050
O    3.31864482  -0.00223124  -2.63979365
H    2.63775018   0.66836018  -2.58574278
H    3.94616630   0.34353587  -3.27453276
O    1.31725270  -0.94046758   2.76066396
H    0.64437232  -1.50488036   3.14132400
H    1.21995484  -0.10694028   3.22109550
O    3.15697602  -0.12860889   0.12317337
H    3.38432328  -0.98132731   0.49387052
H    3.44321478  -0.17936445  -0.78881517
O   -0.88923105  -2.31276642   3.64790328
H   -1.35295491  -2.34538556   4.48463981
H   -1.30492175  -1.59444390   3.17099045
K    0.34898080  -0.14303840   0.09257006
