61
Energy:  -1087.40778688
O   -2.80405555  -1.41959552   1.10164585
H   -3.52238596  -1.33793556   0.47429833
H   -2.67953195  -0.53312987   1.44062131
O   -2.04667559   1.19448897   1.27874208
H   -2.68779816   1.69897386   0.77805386
H   -1.69618391   1.81692156   1.91589600
O   -1.45577282   1.68830538  -2.17300118
H   -0.64157226   2.07167009  -1.84690180
H   -1.20958413   1.26648377  -2.99622017
O   -2.25231062  -1.49536319  -2.38371100
H   -3.11861959  -1.35767749  -2.00058796
H   -1.92758537  -2.29144174  -1.96294467
O    2.86672563  -2.09364649   0.42770112
H    3.47508669  -1.36239833   0.53449429
H    2.14758237  -1.89718014   1.02808915
O   -0.66433212  -3.10786634  -0.81881734
H    0.19671213  -3.39840277  -1.11952191
H   -0.74693588  -3.47356110   0.06190725
O    1.91720624  -3.32877546  -1.76873928
H    2.35762730  -2.98523256  -0.99141090
H    2.45982351  -4.06721259  -2.04534181
O   -0.67975159   2.75388537   3.09952651
H   -1.00672872   3.43813486   3.68358168
H   -0.04168617   3.19904167   2.54190636
O    2.87924254   1.83303791   2.37440888
H    2.34564485   1.25538046   2.92013520
H    3.41606163   1.23912368   1.84969658
O    1.25797224   3.73912324   1.43858712
H    1.91922611   3.13693691   1.77968357
H    1.69856941   4.58842272   1.41036696
O   -4.50273737  -0.72227270  -0.96681220
H   -4.39500752   0.22797791  -0.92619315
H   -5.43930534  -0.85144047  -1.11643830
O    0.83932768   2.08142384  -0.72145425
H    1.72014890   1.90184826  -1.05029834
H    0.97019577   2.72155477  -0.02192742
O   -3.78920558   1.95177824  -0.79208700
H   -4.28154438   2.73416809  -1.04048280
H   -3.03037365   1.95045177  -1.37552869
O    1.33772602  -0.70700850  -2.43556897
H    0.76936882  -0.61536499  -3.20029338
H    1.55545748  -1.63872766  -2.40865666
O   -0.73649697  -0.12858795  -4.17304701
H   -1.36355905  -0.68839902  -3.71518615
H   -0.96028330  -0.22468672  -5.09874489
O    0.85398210   0.54041026   3.80196637
H    0.26769862   1.28345473   3.65917826
H    0.92141233   0.46740739   4.75399347
O    3.22580875   1.13708036  -1.74212671
H    2.66660769   0.43084469  -2.06578889
H    3.66011312   1.47700582  -2.52447078
O    0.62787221  -1.33385869   1.80201135
H    0.10379225  -2.08873973   2.06982971
H    0.67653402  -0.78551853   2.58507389
O    4.30566766   0.24335855   0.62311623
H    5.26085781   0.30360462   0.60848667
H    4.03001002   0.59537853  -0.22324460
O   -1.15836501  -3.43732422   1.91307098
H   -1.87928739  -2.83364694   1.73397177
H   -1.54613565  -4.11760150   2.46360581
K   -0.53938113  -0.35105516  -0.43487806
