61
Energy:  -1085.43956286
O   -1.55284734  -0.60029084   2.23616725
H   -2.38777334  -0.52250928   1.77456087
H   -1.53127680   0.15618612   2.82226380
O   -1.23207610   2.32812380   0.90582434
H   -1.95568791   2.28517951   0.28070549
H   -0.69511315   3.05974710   0.60147258
O   -1.39848612   2.24372571  -3.73383516
H   -1.64904039   1.33109890  -3.59042416
H   -1.60423129   2.40728612  -4.65424201
O   -3.11476470  -2.29776192  -1.27566440
H   -3.56431692  -3.11159570  -1.50328083
H   -2.29626930  -2.58150442  -0.86849452
O    3.46727135  -2.49396331   0.41020635
H    4.24443571  -2.82884897   0.85753061
H    2.89140651  -2.20102675   1.11646389
O   -0.66939880  -2.69005113  -0.10377079
H    0.07278851  -3.11867404  -0.53000105
H   -0.64308370  -3.00649991   0.79922397
O    1.64853977  -3.49232940  -1.38743897
H    2.36055602  -3.24854336  -0.79597209
H    1.94294155  -4.30716934  -1.79437300
O   -1.07945508   1.75274828   3.57263831
H   -1.69743048   2.25663645   4.10219942
H   -1.17487206   2.10839658   2.68909899
O    1.96288800   1.99842346   1.33997585
H    2.57659568   1.44152247   0.86096016
H    1.97392569   1.65471408   2.23326969
O    0.73626780   4.05531338   0.04549686
H    1.30379811   3.49042115   0.56993748
H    1.07608936   4.93828397   0.19081062
O   -3.70038196  -0.37806321   0.63852590
H   -3.74499006   0.42445319   0.11870921
H   -3.69900248  -1.08338529  -0.00858360
O    0.61295969   2.09676203  -1.88381447
H   -0.06948493   2.27438589  -2.53107867
H    0.67055171   2.90153579  -1.36878612
O   -3.11227906   1.79006900  -1.01105427
H   -3.50899814   2.45664087  -1.57188201
H   -2.68362709   1.18842716  -1.61975488
O    0.73156892  -1.09738208  -2.43503771
H    1.09983302  -1.96307118  -2.25841444
H    1.46138481  -0.59565157  -2.79817282
O   -1.83876290  -0.19502163  -2.49161706
H   -2.38150594  -0.94161015  -2.23810686
H   -0.96630499  -0.56620532  -2.62303893
O    1.49743710   0.77391564   3.76971260
H    1.89138811   0.94947853   4.62423710
H    0.61202834   1.13160718   3.83559082
O    2.70618110   0.74067812  -3.00491909
H    2.04362053   1.37143859  -2.72316286
H    3.16333335   1.17765466  -3.72345592
O    1.59735360  -1.44133387   2.09971543
H    0.95188562  -2.07601602   2.41081266
H    1.62865414  -0.77482569   2.78602365
O    3.02458263   0.13130259  -0.33680187
H    3.37879874  -0.74738091  -0.20013400
H    3.14824237   0.29722485  -1.27136590
O   -0.55166097  -3.07935794   2.62449856
H   -0.95481930  -3.63018612   3.29553024
H   -1.05117159  -2.26328943   2.65194272
K    0.19914573   0.04592362   0.09491693
