61
Energy:  -1084.30576116
O   -2.73603813   0.01362031   2.51325800
H   -3.25408525  -0.12318766   1.72007290
H   -2.68888055   0.96495350   2.60798488
O   -1.31223111   2.43171387  -0.02809459
H   -1.98801219   2.27106066  -0.68668575
H   -0.75404033   3.10541788  -0.41639577
O   -1.31356835   1.03389942  -3.69072093
H   -0.49340687   1.27895549  -3.26233499
H   -1.19083813   1.28575522  -4.60600110
O   -1.49184739  -1.46260422  -0.48347687
H   -1.35619658  -2.33237453  -0.10753763
H   -2.39469628  -1.24082543  -0.25563943
O    3.38621161  -2.38153010   1.29796793
H    3.96330382  -2.58425462   2.03424178
H    2.53728369  -2.20019044   1.70129059
O   -0.49229623  -3.82640680   0.58470181
H    0.32274669  -4.03632305   0.12877192
H   -0.87420417  -4.67784720   0.79783889
O    2.05411240  -3.98735967  -0.50644812
H    2.64410921  -3.55296981   0.10953975
H    2.58036443  -4.69007531  -0.88786834
O   -2.11879454   2.70677773   2.55220289
H   -2.49154322   3.56275122   2.76338918
H   -1.92660817   2.75316939   1.61564319
O    2.01612931   2.61357405   1.02722679
H    2.72144181   1.97306216   0.93497359
H    1.58930608   2.38335084   1.85248496
O    0.77903206   4.02896601  -0.92871945
H    1.30454171   3.70062956  -0.19915339
H    1.06456912   4.93563246  -1.04122002
O   -3.93827351  -0.32725633   0.01571490
H   -3.79577760   0.36070992  -0.63438448
H   -4.84224803  -0.60813186  -0.12630923
O    0.91961988   1.61339284  -2.23158027
H    0.99654868   2.52230164  -1.94141029
H    1.81973318   1.34183104  -2.41125244
O   -3.23988024   1.64543066  -1.83125608
H   -3.88626063   2.21256103  -2.25171702
H   -2.65045644   1.38689989  -2.53975680
O    1.55469137  -1.57093836  -1.72833519
H    0.80480790  -1.65436424  -2.31735706
H    1.72029942  -2.46283834  -1.42285154
O   -0.75677004  -1.60987424  -3.10506927
H   -1.01711814  -0.76003340  -3.46034561
H   -1.17914222  -1.65088786  -2.24707658
O    0.29697705   1.41159129   2.81291054
H   -0.48968496   1.95449218   2.86442130
H    0.12775246   0.68621764   3.41409933
O    3.36327417   0.32669110  -2.39537561
H    2.81608120  -0.45425705  -2.31211885
H    3.98989868   0.10823750  -3.08519558
O    0.80605997  -1.85163491   1.98069245
H    0.29596859  -2.57803934   1.62239754
H    0.34645584  -1.60916061   2.78455943
O    3.28107764   0.24771697   0.37372904
H    3.50932255  -0.63833143   0.65489509
H    3.54971310   0.28487727  -0.54425024
O   -0.67908789  -0.87650495   4.05026679
H   -1.48623496  -0.66149895   3.58280783
H   -0.96492448  -1.08344334   4.94004529
K    0.49078055   0.28089058   0.22011352
