61
Energy:  -1085.87136787
O   -2.70619613  -0.29846669   2.15028000
H   -3.14399519  -0.71132265   1.40589181
H   -2.79899111   0.64104750   1.99237486
O   -2.52354799   1.94263007   0.47496101
H   -3.12153606   1.93255826  -0.27239478
H   -2.19861023   2.84229924   0.51021269
O   -1.42560799   0.37148499  -2.62948436
H   -0.63808112   0.91099204  -2.55901864
H   -1.13035297  -0.42849662  -3.06432426
O   -2.30646543  -3.41909956  -1.54881984
H   -2.78125857  -4.24746942  -1.48094718
H   -1.80211086  -3.36436059  -0.73711672
O    3.28668422  -1.71800480   1.75257396
H    3.81991740  -1.85865502   2.53494966
H    2.46907726  -1.34585267   2.08310913
O   -0.77271679  -2.89802380   0.66925561
H    0.12914419  -3.21547291   0.62337886
H   -0.96523566  -2.85670563   1.60598457
O    1.89593444  -3.51756006   0.23717228
H    2.46695723  -2.97635991   0.78239446
H    2.35063789  -4.35744002   0.17331093
O   -1.03761397   4.21560973   0.91836968
H   -1.24824326   5.08976778   1.24656908
H   -0.28345631   4.35002447   0.34442652
O    2.79669204   3.08737992   1.41659170
H    3.22195533   2.28210538   1.12177666
H    3.40793779   3.46358305   2.04990179
O    1.28444150   4.22421661  -0.56798110
H    1.89990500   3.91753927   0.09789091
H    1.76471481   4.90079906  -1.04527093
O   -3.31368032  -1.11425479  -0.37092500
H   -3.71880181  -0.45554389  -0.93502462
H   -3.21248642  -1.88226622  -0.93319726
O    0.73873688   1.71764542  -1.60353239
H    0.89172214   2.62082776  -1.32588330
H    1.60838937   1.38359050  -1.82340442
O   -3.89804800   1.18437079  -1.84563415
H   -4.47771736   1.50405119  -2.53702386
H   -3.07547431   0.98780234  -2.29392558
O    1.19402780  -1.51365706  -1.50238293
H    0.65142967  -1.86439036  -2.20864441
H    1.47116953  -2.28452962  -1.00722659
O   -0.67228567  -2.20421384  -3.38426788
H   -1.29122491  -2.70166922  -2.84977353
H   -0.70509792  -2.62480253  -4.24348866
O    0.33534223   1.94967984   1.91522061
H    1.20820237   2.33364481   1.83204658
H   -0.26373169   2.68330861   1.77690536
O    3.08479528   0.35156812  -2.06000052
H    2.51221276  -0.40697749  -1.94602825
H    3.63332784   0.12740174  -2.81172741
O    0.87005040  -0.70068003   2.39835023
H    0.20951724  -1.16549661   2.91203627
H    0.68663285   0.22585028   2.55369321
O    3.79245165   0.73680897   0.56810140
H    3.73362777  -0.14070264   0.94591747
H    3.67975146   0.60107881  -0.37270031
O   -1.22751557  -2.21540234   3.34316771
H   -1.86872581  -1.55033327   3.09263944
H   -1.56621098  -2.57920216   4.16119397
K   -0.66582049  -0.06954705   0.10010586
