61
Energy:  -1086.87160910
O   -1.89024683   0.04889657   2.06245075
H   -2.71600180   0.15702155   1.59057199
H   -1.72161153   0.90734252   2.45086359
O   -1.19978530   2.53740287  -0.05759365
H   -2.02254158   2.53543509  -0.54677670
H   -0.61270859   3.08617567  -0.57761403
O   -1.95076665   0.14140870  -2.48289483
H   -1.14626214   0.53938725  -2.81548678
H   -1.93037219  -0.75562858  -2.81627155
O   -2.19122312  -2.04758639  -0.15416849
H   -2.11542954  -2.46281278   0.70494398
H   -2.92736220  -1.44242277  -0.06412351
O    2.56193437  -0.89017357   3.04711234
H    2.04722376  -0.11812503   2.81206789
H    1.91147545  -1.57740460   3.19150268
O    1.37417014  -2.43256546   0.37190219
H    2.30932119  -2.24503592   0.45287764
H    1.12610100  -2.78884435   1.22499005
O    3.93637020  -1.52626890   0.83116860
H    3.58714884  -1.29068534   1.69068979
H    4.78705992  -1.92317010   1.01832707
O   -1.12505112   2.61641231   2.67167105
H   -1.38566728   3.43583790   3.09220970
H   -1.21681110   2.78788997   1.73443716
O    2.71121456   2.90869028   0.40267560
H    2.89256274   2.07584765  -0.03289052
H    3.56857509   3.21863263   0.69439552
O    0.85875135   3.79674341  -1.41808893
H    1.55152311   3.62160266  -0.78120208
H    1.04369217   4.68009375  -1.73702610
O   -4.06957045  -0.02468245   0.38807653
H   -4.00691786   0.71019520  -0.22205570
H   -5.00590578  -0.10738089   0.56882209
O    0.45598603   1.36349099  -2.68844282
H    0.69550653   2.25630213  -2.43994726
H    1.25302594   0.99965468  -3.07390665
O   -3.56488172   1.99781573  -1.39764586
H   -3.08182998   1.36489631  -1.92897051
H   -4.10902074   2.47277799  -2.02578233
O    0.83265712  -1.91660972  -2.26848428
H    1.04974000  -2.39096917  -1.46593211
H    0.00890682  -2.30587528  -2.56197980
O   -1.76322827  -2.62180522  -2.78942992
H   -2.00815008  -2.60757783  -1.86420414
H   -2.24857822  -3.36150813  -3.15481586
O    1.15115517   1.22596610   1.95629457
H    1.72346217   1.88681123   1.56644811
H    0.46523299   1.73039570   2.39366557
O    2.64312207  -0.19582340  -3.35775740
H    3.12739956  -0.50514092  -4.12328325
H    2.06453218  -0.92345857  -3.12969456
O    0.75085333  -3.03854756   2.97987352
H   -0.20200044  -2.95737308   2.93849432
H    0.90237930  -3.81532748   3.51828293
O    2.80632362   0.44399334  -0.69012262
H    3.31721477  -0.21545560  -0.22070897
H    2.93287934   0.23206793  -1.61494861
O   -1.91156671  -2.61167032   2.58103208
H   -1.91152830  -1.65451543   2.57173900
H   -2.60603924  -2.84566230   3.19681410
K   -0.03803942  -0.06346743  -0.22040787
