61
Energy:  -1084.57294390
O   -2.77336639  -1.71805033   1.78243347
H   -3.41627831  -1.66187682   1.07551010
H   -2.34539230  -0.86186352   1.78619785
O   -1.52534514   0.69653779   1.36007183
H   -2.23655055   1.05599392   0.82977945
H   -1.35267684   1.36988885   2.01811124
O   -1.05139078   1.41840129  -1.80314518
H   -0.49645180   2.18997214  -1.91695642
H   -1.06780615   1.00514980  -2.66638651
O   -2.42913207  -1.80116273  -2.29020385
H   -3.17743399  -1.66730397  -1.70851844
H   -1.78581327  -2.26181013  -1.75152329
O    2.89589017  -1.78469084   0.09599494
H    3.56249617  -1.11106279   0.23050719
H    2.49309746  -1.89899108   0.95676514
O   -0.39526420  -2.70922016  -0.69823951
H    0.33507331  -3.15156947  -1.13086643
H   -0.52026829  -3.19413093   0.11752233
O    1.97781853  -3.28598992  -1.99831871
H    2.47115609  -2.88076361  -1.28512761
H    2.52359369  -4.01977700  -2.28101617
O   -0.72481932   2.65759797   3.11172978
H   -1.27887407   3.27665977   3.58714295
H   -0.26002958   3.19505003   2.47036590
O    2.01631302   1.44115360   1.55456147
H    1.85879757   1.07518508   2.42489920
H    2.91016021   1.17415944   1.34012462
O    0.86366676   3.84187429   1.14731366
H    1.36917430   3.03967924   1.27837498
H    1.43769397   4.54106705   1.46013008
O   -4.35258049  -1.13095254  -0.42703264
H   -4.17468021  -0.19095863  -0.45857287
H   -5.30406367  -1.19794707  -0.50717831
O    0.78279028   3.47188150  -1.60859156
H    0.86313329   4.30808061  -2.06744656
H    0.75477293   3.70856894  -0.68153927
O   -3.43062307   1.47579462  -0.47595397
H   -3.91653062   2.27396361  -0.68344368
H   -2.67548055   1.49487617  -1.06385491
O    1.31750738  -0.70600458  -2.84250218
H    0.55262698  -0.66119233  -3.41624574
H    1.54152841  -1.63616631  -2.81342330
O   -1.12323717  -0.21751762  -4.02755003
H   -1.65942722  -0.82265754  -3.51516565
H   -1.45317755  -0.30292897  -4.92201976
O    0.94143278   0.55776418   3.94721687
H    0.29888898   1.25847445   3.83597645
H    1.13402361   0.55538624   4.88483884
O    2.59187909   1.35407352  -1.57698960
H    2.07866179   2.14507597  -1.74177731
H    2.30620933   0.73781342  -2.25141389
O    1.08578556  -1.60231972   2.15838788
H    0.46078107  -2.32055444   2.25707990
H    0.93311413  -1.04479583   2.92133637
O    4.33934079   0.55759904   0.35966461
H    5.26713054   0.75219710   0.22711418
H    3.90776686   0.90224597  -0.42212455
O   -0.82944372  -3.56910837   1.90040524
H   -1.59723928  -2.99814431   1.92727286
H   -1.11052156  -4.37021698   2.34250489
K    0.55816185  -0.20055532  -0.19807658
