61
Energy:  -1094.13893027
O   -2.01043309  -0.86316646   1.73258875
H   -2.79279836  -0.67975748   1.21249493
H   -1.99597737  -0.17316277   2.39585173
O   -1.44439760   2.19725067   0.80411734
H   -2.14725587   2.31161693   0.16447489
H   -0.86422253   2.94469893   0.65937674
O   -1.51157053   1.86321796  -3.02250994
H   -0.67511271   2.09987592  -2.62180659
H   -1.31267723   1.09438682  -3.55689929
O   -1.96003068  -1.12564374  -1.62172977
H   -2.77109828  -0.96606222  -1.13909643
H   -1.58746792  -1.90702854  -1.21323664
O    3.43058331  -2.37881233   0.70474982
H    4.14713544  -2.68547949   1.26039371
H    2.72763143  -2.16235077   1.31731402
O   -0.35542362  -2.87534335  -0.34547023
H    0.44246161  -3.27706708  -0.68931476
H   -0.47047764  -3.27137916   0.51832955
O    2.10248995  -3.44823085  -1.45283282
H    2.67148563  -3.16046921  -0.73892176
H    2.53906943  -4.22109496  -1.81103845
O   -1.64831638   1.31208937   3.37605412
H   -2.30830772   1.80169102   3.86690390
H   -1.58878874   1.76594443   2.53539730
O    1.61484369   1.91031556   1.82192360
H    2.30369575   1.41832917   1.37508573
H    1.52636665   1.48065884   2.67268724
O    0.61045994   4.03140176   0.47338853
H    1.07830668   3.42880355   1.05151194
H    0.93134003   4.89872435   0.72040946
O   -4.04040611  -0.25625860  -0.05074386
H   -3.94052035   0.62098633  -0.42046810
H   -4.97731490  -0.44011712  -0.11878660
O    0.78289023   2.19429507  -1.57660588
H    0.85426950   2.97221829  -1.02345824
H    1.66467945   2.06691492  -1.92654004
O   -3.40619776   2.19336995  -1.12803020
H   -3.95613249   2.92844795  -1.39907260
H   -2.80132311   2.06403563  -1.85853081
O    1.37933078  -0.92946948  -2.42580433
H    0.69634900  -0.93537727  -3.09642555
H    1.59937486  -1.85239521  -2.29923197
O   -0.85144155  -0.65713053  -4.03469448
H   -1.37385164  -0.89458982  -3.26857919
H   -1.30355799  -1.06961178  -4.77068482
O    0.88783952   0.45400514   4.04518678
H    1.09346210   0.57809316   4.97176833
H   -0.01413199   0.76183878   3.95620539
O    3.17994290   1.11439066  -2.46695880
H    2.61935260   0.35720135  -2.63617676
H    3.72308277   1.19096391  -3.25141241
O    1.27393147  -1.52899678   2.16125475
H    0.61781131  -2.20110229   2.34567916
H    1.22010997  -0.93027307   2.90614737
O    3.03552914   0.30750592   0.16487992
H    3.38438754  -0.57994686   0.24828996
H    3.30777899   0.59135598  -0.70778325
O   -0.84748021  -3.26044536   2.34753124
H   -1.41689748  -2.50062642   2.22640729
H   -1.34430892  -3.84362760   2.92137055
K    0.16990697  -0.02086761  -0.01729915
