61
Energy:  -1085.14388488
O   -2.14090707  -0.75722620   2.38713854
H   -2.39201808  -0.59579094   1.47768059
H   -2.25667387   0.08776133   2.82167964
O   -1.16098417   2.36397461   0.23143669
H   -1.83863779   2.33848639  -0.44411329
H   -0.55152407   3.03976488  -0.06537595
O   -1.18640719   1.11238043  -3.76204743
H   -1.24583091   1.08327747  -4.71695774
H   -1.12235032   0.19469606  -3.49750260
O   -2.90304515  -2.82541657  -1.28244980
H   -3.57898770  -3.37416255  -1.68020774
H   -2.80399281  -3.17165614  -0.39557966
O    2.97336510  -1.76483421   1.94888201
H    3.48419144  -1.82201164   2.75635897
H    2.12535058  -1.41754689   2.22545881
O   -2.54109664  -3.40771650   1.46269297
H   -2.51290890  -2.58963077   1.95885127
H   -2.92780512  -4.04156281   2.06678506
O    2.47903582  -3.60608563  -0.02894100
H    2.75358262  -3.05097211   0.70092535
H    3.05757073  -4.36724388   0.01761350
O   -1.95469535   2.04256725   2.84711725
H   -2.65969818   2.65759614   3.04945932
H   -1.74650225   2.21010673   1.92797743
O    2.03627534   2.90345098   1.36674572
H    1.63620116   2.68581830   2.20865338
H    2.47301572   2.09690246   1.09294072
O    0.83275141   3.96066598  -0.78572906
H    1.35131160   3.70712249  -0.02215662
H    1.01686519   4.89275481  -0.90210935
O   -2.60752361  -0.31960573  -0.23187871
H   -2.93206914   0.37602924  -0.80371262
H   -2.82228942  -1.12989348  -0.69398396
O    1.10363116   1.66239783  -2.29543202
H    0.38169317   1.62330190  -2.92273490
H    1.04580724   2.53987274  -1.91737645
O   -2.95720508   1.91848396  -1.82548074
H   -3.70521117   2.39752467  -2.18218613
H   -2.41724731   1.71365809  -2.58884423
O    1.75866852  -1.76442452  -1.99005920
H    2.11214591  -2.46218450  -1.43831959
H    2.51894305  -1.22835199  -2.21553812
O   -0.87003980  -1.33972141  -2.63956827
H   -1.43907395  -2.01051227  -2.26211417
H    0.01035236  -1.71068477  -2.58017398
O    0.66684500   2.03320783   3.62820043
H    0.80919232   2.36107082   4.51616155
H   -0.27110472   2.14971261   3.47684388
O    3.53002694   0.33402926  -2.32566732
H    2.76876173   0.89520742  -2.47326880
H    4.19159412   0.66191504  -2.93480739
O   -0.11463450  -2.64609482   0.35184649
H    0.62714481  -3.24494745   0.26599294
H   -0.79228337  -3.16415032   0.78617627
O    2.85095344   0.49290017   0.34643338
H    3.12418507  -0.27277261   0.85172686
H    3.31651415   0.40984548  -0.48578474
O    0.61595637  -0.44419447   2.45367462
H    0.68699915   0.37157281   2.94936457
H   -0.29790209  -0.70933575   2.55757197
K    0.21128046  -0.05790444  -0.29797021
