61
Energy:  -1093.16444475
O   -1.60497947  -0.67491252   2.22810049
H   -2.30791139  -0.57012643   1.58689970
H   -1.66960769   0.10156458   2.78410261
O   -1.42939116   2.41116730   0.89033120
H   -2.19792356   2.53686754   0.33374406
H   -0.83238769   3.11546350   0.63777317
O   -1.66272081   1.19517600  -2.51777419
H   -0.81668921   1.64290091  -2.51996091
H   -1.56732911   0.49867530  -3.16740412
O   -2.83973104  -2.31239971  -1.97067936
H   -2.14337024  -2.59708672  -1.37884596
H   -3.45864522  -3.04250484  -1.98179672
O    2.22486945  -1.38244219   0.38140494
H    2.96092512  -0.77252757   0.33182623
H    2.14654618  -1.58884509   1.31279914
O   -0.73665254  -2.72972320  -0.28997920
H    0.04973243  -3.10890817  -0.68247032
H   -0.71980165  -3.02968384   0.61885055
O    1.69833393  -3.34480297  -1.40164911
H    2.05781043  -2.78103653  -0.71668497
H    2.28351703  -4.10205008  -1.42086884
O   -1.42320721   1.73390927   3.53289075
H   -2.07799633   2.22348792   4.03068168
H   -1.46297790   2.10691355   2.65225578
O    1.71079284   1.63183772   1.34998516
H    2.58034307   1.35417403   1.06185823
H    1.65393184   1.33771196   2.25909941
O    0.78851969   3.96880930   0.30215446
H    1.22485112   3.26923825   0.78841270
H    1.20378443   4.77290522   0.61395056
O   -3.05123113  -0.32066990  -0.03122085
H   -3.42858813   0.50655218  -0.33044845
H   -3.19324356  -0.92630632  -0.75872951
O    0.75518619   2.19984668  -1.81226118
H    1.64257641   1.97414034  -2.09123625
H    0.86870795   2.96192102  -1.24429344
O   -3.53528957   2.27468101  -0.89855835
H   -4.22096093   2.79247097  -1.32043534
H   -2.96296255   2.00399344  -1.61647329
O    1.03631106  -0.93635809  -2.57226252
H    0.30172283  -1.05236262  -3.17488589
H    1.29827670  -1.82696249  -2.33896087
O   -1.34205166  -1.13665541  -3.95373867
H   -1.93183591  -1.61159400  -3.36823058
H   -1.62491320  -1.38625546  -4.83346647
O    1.12749949   0.73366727   3.89205886
H    0.24149936   1.09586804   3.89885759
H    1.48512645   0.95813226   4.75109919
O    3.08727078   0.89090222  -2.50785085
H    2.44220636   0.19393367  -2.62767811
H    3.51418664   0.97200387  -3.36072670
O    1.73605870  -1.83444849   2.96543924
H    0.95107079  -2.38167144   2.94150459
H    1.45535347  -1.03116803   3.40381913
O    3.99242494   0.69279622   0.08553136
H    4.94388201   0.76193261   0.16415349
H    3.81925753   0.81482305  -0.84793227
O   -0.63854028  -3.17424447   2.44442302
H   -1.08746562  -2.33124307   2.50803536
H   -1.10900082  -3.74324773   3.05363072
K   -0.16581655   0.07213290  -0.14856113
