61
Energy:  -1091.35974240
O   -2.22471570  -0.33225006   2.89863743
H   -2.46304867  -0.27975516   1.97307083
H   -1.96007415   0.55827927   3.12918940
O   -1.10213427   2.54437538   0.48947104
H   -1.86425507   2.52109655  -0.08920143
H   -0.53160263   3.21172448   0.10819598
O   -1.63495531   1.65123361  -3.51282953
H   -1.81175968   1.67976317  -4.45312636
H   -1.49743679   0.72327303  -3.32254114
O   -2.64105163  -2.63002855  -1.21612947
H   -3.32733381  -3.20902298  -1.54781316
H   -2.13654796  -3.17646711  -0.61354105
O    3.19036801  -2.33234389   1.03081326
H    3.81311764  -2.78345917   1.60082181
H    2.58377286  -1.90050063   1.63229940
O   -1.01592165  -3.92384475   0.60942028
H   -0.98363463  -4.86789586   0.76420041
H   -1.02646552  -3.53731449   1.48504294
O    1.00832795  -2.50952231  -0.63126905
H    0.37295976  -3.10863312  -0.23934388
H    1.80634619  -2.63679421  -0.11823826
O   -1.23480979   2.24004077   3.20149704
H   -1.78731287   2.91981421   3.58734710
H   -1.23034759   2.43738137   2.26487085
O    2.02049613   2.19516856   1.04576174
H    2.63855461   1.55301559   0.69665555
H    1.95312186   1.98205398   1.97650055
O    0.93556173   4.04216690  -0.61791662
H    1.45837477   3.54685113   0.01260749
H    1.30760749   4.92388155  -0.59809018
O   -2.45205670  -0.27176387   0.18186728
H   -2.86469006   0.43504743  -0.31450289
H   -2.69082076  -1.06866147  -0.29160688
O    0.85902540   1.88354817  -2.33090987
H    0.05176156   1.94502901  -2.84157322
H    0.93572672   2.73474190  -1.89984376
O   -3.16058535   2.00929636  -1.26072372
H   -3.99724882   2.43848806  -1.43966664
H   -2.72667426   1.96469201  -2.11275862
O    1.25120575  -1.96025172  -3.32757684
H    1.31134095  -2.34440270  -2.45290912
H    1.94451159  -1.30060395  -3.34816009
O   -1.03751512  -0.80183610  -2.56748927
H   -1.60075371  -1.51089375  -2.25727742
H   -0.28834073  -1.24646887  -2.96406371
O    1.33710802   1.39380056   3.61586843
H    1.68194221   1.67571521   4.46312599
H    0.44565420   1.74159988   3.59183592
O    2.94148702   0.21964842  -3.05687491
H    2.27245780   0.89602272  -2.95128348
H    3.51173664   0.55228147  -3.74998563
O    1.13326017  -0.96949646   2.22910740
H    0.47832820  -1.54361707   2.62619868
H    1.21611480  -0.23950938   2.84269181
O    3.09359446   0.09106051  -0.30968725
H    3.37632339  -0.76053893   0.02359130
H    3.27255279   0.05252885  -1.24921962
O   -0.89051344  -2.65233004   3.05929213
H   -1.01608727  -3.05735665   3.91743927
H   -1.45754654  -1.88127264   3.07255150
K    0.27984266   0.15239459  -0.21133405
