61
Energy:  -1098.35197550
O   -2.61609573   0.26098932   3.09808455
H   -2.78130012   0.17291385   2.15937157
H   -3.46612811   0.49567129   3.47037632
O   -0.90002987   2.46175682   0.02754871
H   -1.72891634   2.50617972  -0.44911226
H   -0.31609811   3.05008762  -0.45111861
O   -1.94616524   1.17607708  -3.66732805
H   -2.20909357   1.11786236  -4.58586579
H   -1.92535395   0.26790184  -3.36563870
O   -3.11053171  -2.59500698  -0.57282076
H   -2.32942178  -2.80782949  -0.06212936
H   -3.64899252  -3.38514117  -0.52832621
O    3.36045671  -2.05097994   1.28414365
H    4.11233781  -2.07160914   1.87615808
H    2.69720181  -1.54734374   1.75602856
O   -0.74703415  -2.63705380   0.80186926
H    0.03095862  -3.17225917   0.64529877
H   -0.76753053  -2.51532110   1.75107572
O    1.66431659  -3.82479869   0.07495072
H    2.34753351  -3.31743908   0.51316609
H    1.99692945  -4.72234393   0.07133539
O   -0.76315919   2.29328496   2.76575225
H   -0.89245254   2.48554394   1.83701571
H   -1.44866351   1.65961107   2.97734876
O    2.52878873   2.54902766   0.49056457
H    2.80584055   1.68576926   0.18354818
H    2.40138415   2.43911637   1.43285933
O    1.06145640   3.70839868  -1.44196655
H    1.67341908   3.41929006  -0.76509896
H    1.33703982   4.60136174  -1.64909598
O   -2.75893355  -0.03552476   0.40233171
H   -3.08112993   0.62205867  -0.21411405
H   -3.07888000  -0.86784923   0.05433445
O    0.63785848   1.27398011  -2.67082912
H   -0.19604750   1.34830570  -3.13484244
H    0.83270953   2.16586940  -2.38308198
O   -3.22516028   2.03832568  -1.39788876
H   -3.97384273   2.60434552  -1.58584613
H   -2.87078586   1.81537916  -2.25867066
O    0.85381894  -2.18272903  -2.01500723
H    1.23926609  -2.85972980  -1.45883073
H    1.59382906  -1.82525369  -2.50574977
O   -1.64738882  -1.21127947  -2.44580293
H   -2.25098895  -1.77675416  -1.96399684
H   -0.83477492  -1.71469907  -2.49539331
O    1.87520061   1.96539348   3.12374984
H    2.21429052   2.45427966   3.87357661
H    0.94551818   2.19086488   3.09080932
O    2.70164053  -0.48223985  -3.18581649
H    2.02674243   0.19651656  -3.19165885
H    3.21367797  -0.31836597  -3.97777284
O    1.28967882  -0.55358358   2.22346218
H    0.62860215  -0.92843177   2.80544012
H    1.52513096   0.27914516   2.63255505
O    2.81829052   0.00707442  -0.48322985
H    3.21172029  -0.71818668   0.00199298
H    3.01322166  -0.18422260  -1.40063878
O   -0.83429002  -1.78867647   3.45316948
H   -1.50356070  -1.10452902   3.43733107
H   -0.94126955  -2.20934878   4.30629434
K    0.02551678  -0.12095058  -0.27085684
