61
Energy:  -1094.45332760
O   -2.04229525  -0.92040248   2.56869139
H   -2.42491539  -0.79805877   1.69986132
H   -2.07292141  -0.05143947   2.96893779
O   -1.19624573   2.21420689   0.57615878
H   -1.93959517   2.26163424  -0.02501849
H   -0.63046680   2.94116199   0.31603894
O   -1.58130006   1.86698384  -3.51817972
H   -1.73038952   2.05438536  -4.44494013
H   -1.46879486   0.91716669  -3.48047285
O   -2.60135273  -2.68496747  -1.75806094
H   -3.07177667  -3.49755548  -1.94416281
H   -1.85602061  -2.95645403  -1.22233067
O    2.99413932  -2.04145750   1.45423581
H    3.56133606  -2.24409523   2.19818315
H    2.18446633  -1.71948558   1.85046248
O   -0.40432008  -2.87993167  -0.15603193
H    0.44187066  -3.29391138  -0.32577847
H   -0.67211627  -3.22213511   0.69685367
O    2.22626885  -3.55679674  -0.69530484
H    2.59841702  -3.12919474   0.07598895
H    2.71725293  -4.37443655  -0.77673965
O   -1.68949327   1.76760230   3.22682602
H   -2.34714783   2.38155276   3.55360906
H   -1.57722519   2.00379988   2.30604460
O    2.17751243   2.68896054   1.50871999
H    2.52675834   1.90959133   1.07646685
H    1.84688446   2.36983940   2.34840963
O    0.69725071   4.00346322  -0.29693160
H    0.87208498   4.94447503  -0.30964377
H    1.29862575   3.65651742   0.36201341
O   -2.69454547  -0.49793758  -0.06625170
H   -3.06965497   0.25949282  -0.51549984
H   -2.88553454  -1.23776801  -0.64279829
O    0.82115497   1.95995878  -2.13665692
H    0.06208694   2.06759371  -2.70977322
H    0.83678320   2.75700836  -1.60684604
O   -3.19947579   1.95652459  -1.29962970
H   -4.02089364   2.41937772  -1.46477071
H   -2.72651966   2.00311671  -2.13051688
O    1.47464675  -1.49574078  -2.39832074
H    1.86536502  -2.26203539  -1.97836400
H    2.21820862  -0.92831574  -2.60173267
O   -1.08727197  -0.72740806  -2.96291409
H   -1.66944687  -1.45504412  -2.74416766
H   -0.21911965  -1.12549208  -3.02673023
O    0.99624376   1.52099284   3.72808643
H    1.23911071   1.70027892   4.63643878
H    0.05603569   1.69685852   3.69186639
O    3.21439004   0.64131928  -2.58450855
H    2.45452099   1.22337373  -2.57791434
H    3.83075306   1.05813625  -3.18666475
O    0.68979726  -0.76810389   2.24353796
H   -0.21227658  -0.99614421   2.46824274
H    0.89404052  -0.01818016   2.80222475
O    2.74002460   0.38981345   0.12286507
H    3.08155390  -0.41607492   0.51033573
H    3.15060342   0.43366153  -0.74069398
O   -1.36905764  -3.59018084   2.28557661
H   -1.70029022  -4.23320213   2.91250599
H   -1.75099055  -2.75959480   2.56927703
K    0.05931348  -0.11697535  -0.38778892
