61
Energy:  -1093.78060115
O   -1.91337143  -0.37775021   2.37087184
H   -2.59711777  -0.31269390   1.70417066
H   -1.88505511   0.49126043   2.77118491
O   -1.74131529   2.60126479   0.47190549
H   -2.46575197   2.58906835  -0.15361397
H   -1.20261324   3.34457708   0.20076200
O   -1.63366472   1.46033203  -3.14956222
H   -0.80435213   1.83932818  -2.85829877
H   -1.46852177   0.51805598  -3.18235690
O   -2.82717741  -2.71231517  -1.30027776
H   -3.32090097  -3.53052160  -1.35511502
H   -2.13970241  -2.88942896  -0.65821805
O    3.32298499  -2.56113385   0.75850555
H    4.21107782  -2.68465695   1.09356526
H    2.84102400  -2.17822885   1.49153298
O   -0.61840557  -2.72644716   0.33525129
H    0.10420057  -3.28341877   0.04567430
H   -0.63169957  -2.82616259   1.28715042
O    1.55407945  -4.16707441  -0.57973908
H    2.23945854  -3.72249986  -0.08089961
H    1.70401839  -5.09823695  -0.41637913
O   -1.41902546   2.21382369   3.13470997
H   -1.85171322   2.83904233   3.71618637
H   -1.65943470   2.49968618   2.25339397
O    2.46214533   3.30838741   1.00407678
H    2.86295499   2.82498154   0.28164877
H    3.20244021   3.67647059   1.48647714
O    0.22842467   4.42617545  -0.19894409
H    1.01198658   4.20646204   0.30502873
H    0.30524637   5.36580564  -0.36455017
O   -3.18426910  -0.24952797  -0.05187555
H   -3.55858701   0.45661528  -0.57863892
H   -3.34310737  -1.04180975  -0.56499526
O    0.60909973   2.17524189  -1.71426835
H    0.45144479   3.03293901  -1.31963887
H    1.56226487   2.08832851  -1.72668306
O   -3.64445142   2.08603306  -1.47798606
H   -4.38139926   2.50651042  -1.92108709
H   -3.01026191   1.91698464  -2.17473432
O    1.40699449  -2.55439382  -2.81178272
H    1.77169163  -2.94659521  -3.60513379
H    1.45857115  -3.24895558  -2.15515828
O   -0.94200125  -1.12752807  -2.53236487
H   -0.19473463  -1.67374844  -2.77622500
H   -1.63489984  -1.75148653  -2.31603356
O    0.93840513   1.23498388   2.02259566
H    1.49843953   1.97299957   1.78191712
H    0.25265630   1.62165951   2.56707922
O    3.28593027   1.78853239  -1.15244654
H    3.03030475   0.87034233  -1.06404712
H    4.03609357   1.77264894  -1.74678194
O    1.79561991  -1.33598250   2.57977323
H    1.01285584  -1.77955603   2.90650674
H    1.54884881  -0.41199827   2.53991090
O    2.18297107  -0.69303827  -0.91781767
H    2.65164727  -1.27577473  -0.32032902
H    1.99096461  -1.23668267  -1.68189629
O   -0.59979062  -2.61677356   3.08914292
H   -1.15605078  -1.84391786   2.99167219
H   -0.93518173  -3.05689594   3.87019153
K   -0.41504135   0.10414780  -0.09853490
