61
Energy:  -1094.49609571
O   -2.20923033  -0.49940166   2.54638274
H   -2.89502413  -0.39119248   1.88743700
H   -2.14390532   0.35758409   2.96773760
O   -1.45473764   2.57123582   0.60227070
H   -2.15856639   2.68405462  -0.03657894
H   -0.74585822   3.12735301   0.27907496
O   -1.54768451   0.71041646  -2.45486148
H   -0.63272236   0.98876476  -2.41488239
H   -1.52733128  -0.11132218  -2.94533390
O   -3.53355623  -2.31974334  -1.55733566
H   -2.92926258  -2.65280997  -0.89391449
H   -4.27701597  -2.92197412  -1.52874258
O    3.64164408  -1.90878743   0.73002001
H    4.19426461  -2.38762878   1.34772005
H    2.77993266  -1.88668405   1.14618912
O   -1.57444700  -2.86549770   0.22939529
H   -0.73875313  -2.91881255  -0.23429117
H   -1.36190211  -3.09440406   1.13419272
O    3.14313728  -2.12170556  -1.95422350
H    3.37508009  -2.13099955  -1.02559655
H    3.60638572  -2.87289933  -2.32481848
O   -1.63865135   2.10455093   3.28596705
H   -2.05535360   2.78524167   3.81440929
H   -1.69089685   2.43214464   2.38808921
O    2.63927655   2.87094890   1.67810574
H    3.13830787   2.18763413   1.23057863
H    3.27331418   3.28821621   2.26130051
O    0.90016947   3.79171211  -0.23059931
H    1.53167326   3.58143372   0.45730897
H    1.11855670   4.68639323  -0.49152947
O   -3.45475528  -0.09344170   0.11860634
H   -3.67378405   0.71940536  -0.33695694
H   -3.66334898  -0.78454091  -0.50996538
O    0.93301753   1.38317281  -1.56431805
H    1.02217970   2.27253482  -1.22180212
H    1.80528581   1.16347607  -1.89159964
O   -3.42827776   2.29426178  -1.31180619
H   -4.01114391   2.76584345  -1.90687730
H   -2.83657024   1.81089279  -1.88840698
O    0.41950318  -2.03192050  -1.48015000
H   -0.07484418  -2.06826254  -2.29901006
H    1.33450525  -2.11629215  -1.74826279
O   -1.56164677  -1.86253416  -3.43260945
H   -2.32041544  -2.08518462  -2.89323135
H   -1.77942384  -2.19663582  -4.30277097
O    0.76722631   1.00863167   2.44761646
H    1.41511055   1.69704654   2.29740717
H    0.06532069   1.44155462   2.93355687
O    3.44662655   0.58139941  -2.34675170
H    4.03423756   0.77986398  -3.07583123
H    3.38925245  -0.37403947  -2.33799911
O    1.17835511  -1.59696937   1.82737784
H    1.15733985  -0.74576013   2.26467985
H    0.57070588  -2.13986829   2.32962779
O    3.85266674   0.84393486   0.37461856
H    3.88444213  -0.08517521   0.60260243
H    3.83320264   0.85570175  -0.58231119
O   -0.97471735  -2.90299603   2.93239921
H   -1.49760345  -2.10233720   2.97443983
H   -1.24887215  -3.40910464   3.69720316
K   -0.63323162  -0.09378742   0.22191283
