61
Energy:  -1090.60368877
O   -2.92398255  -1.26783713   1.80489488
H   -3.55724097  -1.32799648   1.08963516
H   -2.67364695  -0.34421015   1.82673846
O   -2.00909347   1.26719143   1.27180718
H   -2.70528988   1.53961803   0.67403955
H   -1.73731614   2.07489828   1.70767251
O   -1.46103208   1.21715094  -1.94956827
H   -0.70287489   1.80105541  -1.92754359
H   -1.32060771   0.67056991  -2.72271898
O   -2.57872717  -2.10202269  -2.12623431
H   -3.33245289  -1.80979392  -1.61366067
H   -1.95082970  -2.41270162  -1.47396503
O    3.35974905  -2.39638262   0.73194050
H    4.04305478  -2.81080907   1.25879516
H    2.64496344  -2.23703073   1.34831729
O   -0.59481814  -2.59844591  -0.30647187
H    0.17820668  -3.06501358  -0.62424396
H   -0.77640364  -2.98912097   0.54829801
O    1.84969742  -3.37532679  -1.34113262
H    2.47284867  -3.14719090  -0.65130047
H    2.18304364  -4.19602989  -1.70384265
O   -0.69486354   3.35854279   2.49607177
H   -0.94833735   4.04864845   3.10904571
H   -0.02094960   3.76026427   1.94771814
O    3.21760786   2.34871905   2.04502870
H    3.30434228   1.64248938   1.40475639
H    4.05649593   2.35920082   2.50588527
O    1.45870611   4.13369577   0.92171576
H    2.14959775   3.61891548   1.33873117
H    1.84116046   5.00427070   0.81189858
O   -4.52288622  -1.05716788  -0.45299012
H   -4.42281054  -0.11341376  -0.57766912
H   -5.46684832  -1.20726297  -0.50436003
O    0.89755270   2.39198047  -1.16427212
H    1.11026311   3.09154843  -0.54654176
H    1.72232991   2.21083699  -1.61500646
O   -3.86095555   1.60302731  -0.75506844
H   -4.33141923   2.34646208  -1.13216327
H   -3.07913608   1.51245778  -1.29985035
O    1.26394721  -0.86108911  -2.34642325
H    0.53311099  -0.90400192  -2.96308260
H    1.48145947  -1.77601735  -2.16802321
O   -1.03102958  -0.73615217  -3.84478672
H   -1.63526184  -1.27521523  -3.33434943
H   -1.29182257  -0.87919096  -4.75459921
O    0.86586655   1.04536468   2.67907819
H    1.71755136   1.47992146   2.63407565
H    0.24288680   1.75427758   2.83898620
O    3.09472693   1.15278771  -2.35663215
H    2.50845993   0.42215101  -2.55333717
H    3.64707714   1.23333101  -3.13422708
O    1.19044466  -1.65624803   2.18441724
H    1.07554356  -0.84317585   2.67629447
H    0.43924876  -2.19507847   2.43260732
O    3.03821935   0.31385360   0.25842111
H    3.32689105  -0.59501494   0.34123704
H    3.24971423   0.55151555  -0.64436267
O   -1.10163570  -3.16913531   2.35835687
H   -1.82089437  -2.54326899   2.27356209
H   -1.45449595  -3.86687785   2.91051341
K    0.15694763   0.01700179   0.11148144
