61
Energy:  -1089.47518152
O   -2.04182803  -0.75936601   2.48501004
H   -2.56466546  -0.63397313   1.69308233
H   -2.11207200   0.07256572   2.95318439
O   -1.47525436   2.43634032   0.78834721
H   -2.11912544   2.44409506   0.08010873
H   -0.84002391   3.10887518   0.54256075
O   -1.60892006   1.43206110  -3.46413038
H   -1.51288064   2.02603828  -4.20857608
H   -0.86269380   1.63268403  -2.89921565
O   -2.63373972  -2.42769025  -1.70621574
H   -2.14261777  -2.12820765  -2.47129171
H   -1.96778170  -2.78284193  -1.11748910
O    3.50279234  -2.10304192   0.89541913
H    4.27707220  -2.36447124   1.39379374
H    2.80670171  -2.03934597   1.54935530
O   -0.59015713  -2.86199216   0.11437348
H    0.23189054  -3.28026322  -0.14159293
H   -0.74646296  -3.16693368   1.00813576
O    1.92213596  -3.55768279  -0.82922014
H    2.57204619  -3.15238080  -0.25513057
H    2.30230796  -4.40483956  -1.06165617
O   -1.86182005   1.84186242   3.41973631
H   -2.43108018   2.43824023   3.90605747
H   -1.86296518   2.18443816   2.52593969
O    2.44492048   2.78893104   1.75777214
H    2.69404276   2.00855019   1.26261997
H    3.25222765   3.06617655   2.19092559
O    0.67911759   3.99552525   0.03873626
H    1.33772948   3.69631103   0.66557999
H    0.81650964   4.94094066  -0.02080340
O   -2.79907430  -0.29587542  -0.08733166
H   -3.15461489   0.45497646  -0.56277272
H   -2.92409440  -1.03662958  -0.68053068
O    0.41046329   1.88151251  -1.70829949
H    0.54465130   2.69182829  -1.21675725
H    1.28064837   1.65152519  -2.03405339
O   -3.24872531   2.10632299  -1.35920324
H   -4.08995165   2.46675185  -1.63966917
H   -2.78759742   1.91055151  -2.17484192
O    1.07325223  -1.23208398  -2.04690680
H    0.36164322  -1.37372793  -2.67123160
H    1.34196847  -2.11279763  -1.78543613
O   -1.11959341  -1.28189226  -3.71115378
H   -1.35063724  -1.59351150  -4.58622181
H   -1.37330380  -0.35892844  -3.71033021
O    0.70403040   0.95395876   2.89615430
H    1.26722654   1.70684693   2.71670690
H   -0.08954036   1.33263219   3.27441840
O    2.82769159   0.78725416  -2.43590449
H    2.31280463  -0.01923387  -2.46236818
H    3.45830446   0.69291172  -3.14980838
O    1.34690299  -1.66645716   2.43424111
H    0.65014497  -2.24605635   2.74217760
H    1.17423173  -0.83145627   2.86920089
O    2.74771764   0.50140262   0.29202605
H    3.14341170  -0.34594968   0.49611458
H    2.94316072   0.64058288  -0.63461450
O   -0.91434572  -3.19439779   2.84484668
H   -1.44433258  -2.39741855   2.85788015
H   -1.35303772  -3.78438246   3.45778979
K   -0.06584422  -0.11395793   0.38672135
