61
Energy:  -1085.72619281
O   -2.34746653  -0.51140478   1.84277909
H   -2.69711533  -0.31296501   0.97410238
H   -2.34567726   0.33020716   2.29875934
O   -1.18195070   2.90011975   0.33765604
H   -1.75649824   3.04501945  -0.41409595
H   -0.73966433   3.73911122   0.46691518
O   -0.70285720   1.45331784  -3.45172621
H   -0.01544941   1.55525724  -2.79346279
H   -0.63202479   0.54125365  -3.73342382
O   -2.56531845  -2.28018081  -2.35516490
H   -3.32099561  -2.85095200  -2.49446360
H   -2.10839101  -2.66517512  -1.60734904
O    2.99528339  -3.08800451   1.14919538
H    3.66136350  -3.44990880   1.73365618
H    2.32224763  -2.74375253   1.73634552
O   -1.07363745  -3.03122346  -0.15953585
H   -0.30447377  -3.57452602  -0.33112088
H   -1.31467213  -3.23503835   0.74411985
O    1.36216862  -4.17534098  -0.79120348
H    1.99911888  -3.91557902  -0.12558352
H    1.63889741  -5.05161337  -1.05915818
O   -1.88473654   2.01079892   2.81461383
H   -2.32446558   2.67803526   3.34155393
H   -1.74243551   2.43038151   1.96612534
O    2.29249408   3.08328340   2.16054069
H    2.75921183   2.78294954   1.38066508
H    2.98372466   3.28308704   2.79181769
O    0.52991930   4.88828079   0.98729860
H    1.17737335   4.37140073   1.46674631
H    0.83825360   5.79111337   1.06511336
O   -2.51250909   0.03415676  -0.82651148
H   -2.70360583   0.86319553  -1.26515554
H   -2.71353999  -0.63528142  -1.48047704
O    0.78788944   1.73096495  -1.14242830
H    0.19627633   2.28795749  -0.63647861
H    1.66453194   2.02699566  -0.89728427
O   -2.67720076   2.55404913  -1.98964125
H   -3.30792810   3.04575614  -2.51560616
H   -2.02007491   2.25666994  -2.61891312
O    1.24379966  -1.66602392  -1.99878614
H    0.72361629  -1.57762942  -2.79742718
H    1.29246464  -2.60991042  -1.84732051
O   -0.59723753  -1.27451322  -3.99915191
H   -1.35036050  -1.65955720  -3.55106846
H   -0.69850280  -1.54265025  -4.91243157
O    0.62426750   0.89807222   2.55023315
H    1.23866563   1.62996846   2.49478334
H   -0.20141280   1.29801737   2.82323088
O    3.35464924   2.07970520  -0.14316200
H    3.34082321   1.12348598  -0.10210745
H    4.11544390   2.28561801  -0.68632243
O    0.92799444  -1.88698477   2.43385838
H    0.11316319  -2.31176983   2.70188736
H    0.88437966  -1.01497943   2.82620552
O    2.89670730  -0.60483125  -0.10912336
H    3.15019209  -1.40458023   0.35172248
H    2.55329145  -0.91027801  -0.94876595
O   -1.59870693  -3.01141479   2.57228718
H   -2.02784396  -2.16500333   2.44714368
H   -2.14937621  -3.46796728   3.20833357
K    0.01913732  -0.47978832   0.20437530
