61
Energy:  -1095.22523422
O   -1.91598906  -0.96865910   1.56846751
H   -2.71062672  -0.78454520   1.06758339
H   -1.97427085  -0.39313597   2.33109993
O   -1.36911150   2.21386513   1.25270196
H   -2.13624306   2.40411924   0.71275346
H   -0.81164504   2.98622863   1.15826883
O   -1.43108800   1.47235278  -2.00193526
H   -0.63822121   2.00805338  -1.97705639
H   -1.34321319   0.95052250  -2.79955862
O   -2.61521294  -1.66331859  -2.20129223
H   -1.90728085  -2.08246762  -1.71202942
H   -3.15888794  -1.25037552  -1.53037692
O    3.48626070  -2.37762636   0.30373224
H    4.19625978  -2.78410044   0.80063463
H    2.78811146  -2.24741836   0.94549962
O   -0.38847642  -2.46501155  -0.82833755
H    0.39193332  -2.83083699  -1.24470785
H   -0.51679432  -3.00131221  -0.04593870
O    2.06526158  -3.02482315  -1.95486293
H    2.65686089  -2.89460393  -1.21372526
H    2.44295058  -3.76040093  -2.43705397
O   -1.61450182   0.87558697   3.60167410
H   -2.25368043   1.28872933   4.18218761
H   -1.53420432   1.48028152   2.86402332
O    1.70749205   1.71123746   2.02575137
H    2.39261404   1.28199362   1.51331655
H    1.60826991   1.16074098   2.80250129
O    0.72127943   4.04237988   1.05244103
H    1.17580057   3.33783660   1.51424309
H    1.05509821   4.84563045   1.45192244
O   -3.99988158  -0.38684298  -0.12119259
H   -3.95405128   0.55984202  -0.25505425
H   -4.93693329  -0.58060803  -0.09627186
O    0.92463665   2.59451971  -1.29927930
H    1.00862129   3.27155622  -0.62786289
H    1.80817785   2.49802595  -1.65463231
O   -3.50922660   2.28919968  -0.50776703
H   -4.01203174   3.00244327  -0.90108931
H   -2.84706992   2.07204310  -1.16398605
O    1.32572607  -0.44115266  -2.61788066
H    0.57053474  -0.47376227  -3.20512381
H    1.60917378  -1.35215284  -2.54062839
O   -1.06812279  -0.38325501  -3.99652975
H   -1.67705571  -0.90726063  -3.47609660
H   -1.37909861  -0.47769334  -4.89686707
O    0.95252558  -0.04772023   4.01730221
H    0.04401272   0.25348741   4.00680522
H    1.18332904  -0.08186010   4.94563193
O    3.24128259   1.49671728  -2.38248795
H    2.62122727   0.82028523  -2.65489011
H    3.79406782   1.63903242  -3.15086724
O    1.34023412  -1.73326016   1.86568113
H    0.67745388  -2.42109764   1.92759879
H    1.27080631  -1.25786792   2.69357838
O    3.08043575   0.35338928   0.11801612
H    3.43151394  -0.53678159   0.09410416
H    3.35345229   0.74145465  -0.71330757
O   -0.80480660  -3.44377967   1.71380869
H   -1.35768510  -2.66458296   1.77220128
H   -1.31863118  -4.13453102   2.13223278
K    0.21246142   0.15696196  -0.01469035
