61
Energy:  -1085.37716528
O   -2.17911407  -0.42075972   1.82765894
H   -2.80110089  -0.39295100   1.10061636
H   -2.30748387   0.41013800   2.28521988
O   -1.41038812   2.50599060   0.28928058
H   -2.08979805   2.64146095  -0.37123573
H   -0.73700616   3.15229947   0.07697553
O   -1.61042062   0.49433821  -2.39613437
H   -0.79342379   0.99294059  -2.38414684
H   -1.41796989  -0.26862145  -2.94119137
O   -2.51778706  -2.77795421  -1.55359594
H   -1.87029136  -2.93114557  -0.86547271
H   -3.09792491  -2.10775639  -1.19233866
O    3.52140098  -1.97242137   1.33634926
H    4.24823671  -2.18882803   1.92039534
H    2.77596364  -1.83625660   1.92116904
O   -0.49639808  -2.76039026   0.29139503
H    0.33260780  -3.21621921   0.14578922
H   -0.71614659  -2.94761188   1.20402338
O    2.07202051  -3.56434840  -0.37697706
H    2.67944412  -3.11283860   0.20903258
H    2.46910976  -4.42373255  -0.51843682
O   -2.08699746   2.13737170   2.88043377
H   -2.66915918   2.79011912   3.26933015
H   -1.96510678   2.43189599   1.97786524
O    2.46452255   2.94596282   1.60452318
H    2.74607352   2.13050380   1.18980945
H    3.24251039   3.26295659   2.06330605
O    0.82591337   4.02402991  -0.31345791
H    1.44542996   3.78045733   0.37436723
H    0.98561799   4.95617984  -0.46118333
O   -3.52660425  -0.34972085  -0.56693210
H   -2.93591549   0.01506586  -1.22590805
H   -4.34794642   0.12584041  -0.69131207
O    0.73702187   1.75981376  -1.89202604
H    0.84980556   2.62866847  -1.50653521
H    1.61099322   1.51793283  -2.19845636
O   -3.23175319   2.65292169  -1.74914957
H   -3.65697901   3.21504044  -2.39678940
H   -2.76141085   2.00115630  -2.26896859
O    1.30768851  -1.44013413  -1.96499887
H    0.61447456  -1.69544821  -2.57368679
H    1.58426392  -2.26124813  -1.55817005
O   -0.91789136  -1.91802948  -3.52661996
H   -1.52045259  -2.33602629  -2.91145293
H   -1.09642761  -2.34455242  -4.36473382
O    0.54243370   1.26331125   2.69636286
H    1.13500503   1.99609556   2.52867795
H   -0.27795101   1.67527181   2.96745189
O    3.14908949   0.51903933  -2.38577684
H    2.59966025  -0.26457542  -2.40330606
H    3.76801411   0.39432485  -3.10522834
O    1.24158461  -1.36618647   2.63087105
H    0.49098409  -1.87836618   2.93170765
H    1.05193045  -0.47231313   2.91592123
O    2.86529175   0.53766359   0.35253007
H    3.24267647  -0.27800708   0.68191433
H    3.13382751   0.57279194  -0.56555838
O   -1.15881636  -2.68474322   2.96732921
H   -1.67500280  -1.92093818   2.70967585
H   -1.71189678  -3.14676217   3.59730730
K    0.08507273  -0.02988450   0.22560203
