30
Energy:    -95.44061964
C   -0.07219287  -1.16938135  -1.99932765
H    0.71327080  -0.52031350  -2.32591288
H   -1.01422787  -0.67512650  -2.11413748
H   -0.06423906  -2.06303822  -2.58772652
C    0.14170562  -1.52871418  -0.51719158
N    0.30096277  -1.79625380   0.58632611
C   -2.75303374   2.92797585  -1.14343080
H   -2.98793737   3.92599185  -1.44951012
H   -2.67686567   2.89063367  -0.07679915
H   -3.52600068   2.26371494  -1.46928144
C   -1.41207623   2.50136211  -1.76907741
N   -0.41367242   2.18372878  -2.23489974
C    3.62646986  -3.02866772   0.77346784
H    4.46231594  -2.85128256   1.41751443
H    3.73344855  -3.98491591   0.30544641
H    2.72378540  -3.01162066   1.34772323
C    3.56869773  -1.93222028  -0.30637724
N    3.52568376  -1.11586531  -1.11037098
C    1.81786437   1.48777081   0.45747172
H    2.52396742   2.26658827   0.65687594
H    1.69368948   1.38106551  -0.59992776
H    2.17621064   0.56745304   0.86917821
C    0.46456966   1.84500202   1.09979509
N   -0.54301976   2.11097688   1.57803403
C   -2.55084345  -0.47693454   2.28058161
H   -2.61498173   0.49610317   2.72101784
H   -1.55692093  -0.85595237   2.39617835
H   -3.24188476  -1.13425512   2.76564928
C   -2.89445539  -0.38582867   0.78217227
N   -3.15029010  -0.31799621  -0.33346160
