30
Energy:    -92.22900763
C   -2.28953864   1.35078207  -2.09284295
H   -3.09378742   1.74870588  -2.67571577
H   -1.84357009   0.52959845  -2.61406134
H   -1.55512966   2.11208076  -1.93170062
C   -2.83088383   0.86425792  -0.73569903
N   -3.23393993   0.50201857   0.27475631
C    1.16282942  -0.20728239  -2.00995275
H    2.04873115  -0.56057022  -2.49499504
H    1.19880480   0.85944023  -1.93440333
H    0.30472029  -0.49570662  -2.58035548
C    1.07105105  -0.81898097  -0.59963308
N    1.00271788  -1.27441837   0.45041402
C   -0.62999731   1.22885325   2.49458762
H   -0.26825948   0.22283357   2.53897606
H   -1.69998277   1.22342711   2.49371519
H   -0.27677828   1.77276299   3.34564437
C   -0.11902061   1.90175690   1.20706927
N    0.26142477   2.40276425   0.24845334
C    3.82739340   0.54335085   1.72166269
H    3.24414626   1.36797905   2.07480755
H    4.76359890   0.52105396   2.23927374
H    3.29907274  -0.36975088   1.90060850
C    4.07978445   0.70277774   0.21087421
N    4.26770106   0.82147831  -0.91397648
C   -2.18164246  -2.98192593   0.39477436
H   -1.26398717  -2.86266545   0.93197627
H   -2.47146424  -4.01184110   0.40808507
H   -2.94464645  -2.39069870   0.85648244
C   -1.98709763  -2.52218837  -1.06206938
N   -1.84225017  -2.17989286  -2.14675577
