30
Energy:    -94.52423773
C    1.44788581   0.83215509  -2.83062056
H    2.28545633   1.33955885  -3.26180177
H    0.56142026   1.07950170  -3.37642049
H    1.61016030  -0.22458361  -2.87385697
C    1.28470387   1.26679333  -1.36226731
N    1.16320750   1.59040125  -0.26901158
C    0.71598970  -1.51965583   1.61104267
H    1.57756030  -1.52463126   2.24552792
H    0.00579154  -2.23580457   1.96832218
H    0.27397600  -0.54524193   1.61741003
C    1.13429658  -1.88420434   0.17447603
N    1.44574507  -2.15562728  -0.89511314
C   -1.58803173  -3.07361348  -2.17826315
H   -1.39299409  -2.12530093  -2.63385485
H   -2.35257046  -3.58254533  -2.72723308
H   -0.69426278  -3.66188093  -2.18245261
C   -2.05473588  -2.85932748  -0.72641303
N   -2.40221833  -2.69978181   0.35455537
C    2.00944431   3.15877686   2.56054679
H    2.80084361   2.62988554   2.07181240
H    2.41943671   3.79472502   3.31710166
H    1.48104441   3.75202692   1.84378531
C    1.04083748   2.15085665   3.20668736
N    0.31966566   1.40041424   3.68776839
C   -2.22346414   0.93649726   0.62692166
H   -2.27916833   0.00064327   1.14264885
H   -3.10828494   1.50519280   0.82333099
H   -1.36704903   1.48055822   0.96670091
C   -2.10240856   0.68188944  -0.88705337
N   -2.01227718   0.49232234  -2.01427660
