30
Energy:    -92.63354709
C   -2.07035389  -0.54419648  -1.82949046
H   -2.04595448   0.51281670  -1.99389239
H   -2.94350064  -0.79732185  -1.26518434
H   -2.09506972  -1.05118001  -2.77143309
C   -0.81321764  -0.97151745  -1.04935891
N    0.12277744  -1.28967734  -0.46851551
C   -0.98966179  -2.49141751   2.72380561
H   -0.39276600  -1.85816379   3.34638519
H   -0.37799359  -2.91412761   1.95434003
H   -1.41256856  -3.27664294   3.31496546
C   -2.12042288  -1.66430379   2.08438223
N   -2.96232591  -1.04848004   1.60830245
C    2.04816924   0.89735502  -3.10753836
H    1.95979143   0.63781767  -2.07326088
H    1.97902778   1.95960814  -3.21587520
H    2.99339660   0.56162501  -3.48000271
C    0.91445643   0.22524344  -3.90413191
N    0.07035571  -0.27517419  -4.49723201
C   -1.34470486   2.06714124   1.34469360
H   -2.36009795   2.28620894   1.08801013
H   -1.02483346   2.72382598   2.12658011
H   -1.27200399   1.05314197   1.67848868
C   -0.44830689   2.26611367   0.10837623
N    0.21910215   2.41425768  -0.81211825
C    2.72673567   0.01809908   1.11461009
H    3.73249684   0.02296712   1.47974150
H    2.60547948   0.79879461   0.39300736
H    2.51804099  -0.92625671   0.65685715
C    1.75407229   0.24664159   2.28648648
N    1.02988019   0.41680187   3.15900172
