30
Energy:    -93.61539393
C   -1.19166598  -0.03916457  -1.84887238
H   -1.53006106   0.20055579  -2.83524102
H   -1.48682610  -1.03793445  -1.60343737
H   -0.12515340   0.03750247  -1.80922170
C   -1.81480208   0.94295782  -0.83954735
N   -2.27875522   1.67419258  -0.08805898
C   -2.73450157  -0.11836913   2.75316289
H   -3.17997975  -0.44441839   3.66975509
H   -3.23103605   0.76503330   2.40972039
H   -1.69876461   0.09514392   2.91613597
C   -2.86939472  -1.22784222   1.69369448
N   -2.96982880  -2.05389536   0.90487210
C    3.54037081  -0.06371047  -1.47300814
H    3.55260118   0.79816669  -2.10697846
H    4.52476435  -0.47933032  -1.41707434
H    3.21630097   0.21882182  -0.49318503
C    2.57239399  -1.11262456  -2.05128154
N    1.85169125  -1.89358877  -2.48183237
C    0.31432349  -3.18830423   0.35111156
H   -0.67549085  -3.49332654   0.61968023
H    1.02710072  -3.81395597   0.84649788
H    0.43914281  -3.27476981  -0.70805931
C    0.53340372  -1.72438088   0.77600249
N    0.69651890  -0.63442341   1.09235310
C    0.39746052   3.52476080   0.72935203
H    1.02488041   4.33808768   1.02892482
H    0.37852205   2.78535573   1.50254061
H   -0.59503652   3.88502758   0.55598379
C    0.95015696   2.89985269  -0.56510403
N    1.36166459   2.43458020  -1.52888541
