30
Energy:    -91.10373595
C   -2.08052057  -0.82048075  -1.95746028
H   -3.10446395  -0.65414757  -1.69521342
H   -1.75178174  -1.74924899  -1.54006426
H   -1.98624441  -0.85495498  -3.02274082
C   -1.21563139   0.32647493  -1.40242933
N   -0.57168207   1.18043558  -0.98918357
C    1.13604049   2.72839378  -3.34546787
H    0.48840304   3.31261542  -2.72566872
H    0.63803322   1.82517016  -3.63020449
H    1.39040340   3.28697089  -4.22193249
C    2.41882232   2.38358408  -2.56625221
N    3.37391170   2.12685759  -1.98609074
C   -1.23152667   1.85162474   2.36474003
H   -0.80893406   2.54343294   1.66637259
H   -1.60141442   2.38477466   3.21552397
H   -2.03561316   1.32106655   1.89906630
C   -0.15009689   0.85220613   2.81559708
N    0.65507674   0.10809355   3.15128065
C    2.45649408  -0.38273469   0.22008814
H    3.33627923  -0.35279455  -0.38817319
H    2.73476787  -0.52967361   1.24276685
H    1.92502022   0.54098083   0.12425350
C    1.55467834  -1.54380580  -0.23843367
N    0.88323554  -2.40827602  -0.57982400
C   -0.72538694  -3.25353032   2.45996874
H   -0.43756996  -3.94555218   1.69631482
H   -1.16379030  -3.78663814   3.27758579
H    0.13735654  -2.72146748   2.80272511
C   -1.75036261  -2.25603039   1.88898822
N   -2.51350359  -1.51334636   1.46386726
