30
Energy:    -91.91676419
C    0.56591653  -2.22195269   0.36944422
H    1.29835518  -2.76543037   0.92896706
H    0.45145863  -2.66823705  -0.59628283
H   -0.36997741  -2.24773276   0.88745679
C    1.02347468  -0.76032857   0.20852350
N    1.36414752   0.32791702   0.08871070
C    2.65397616   0.94700203   3.30861788
H    3.49378341   1.22757699   3.90936878
H    1.76724120   1.39838160   3.70213623
H    2.80755009   1.27966027   2.30330567
C    2.50048502  -0.58524726   3.32451150
N    2.38620389  -1.72607649   3.33634503
C    1.00992084   1.07061976  -3.35609223
H    1.66547082   1.34397666  -2.55582327
H    0.11716712   1.65798333  -3.30229697
H    1.49706361   1.24704949  -4.29228855
C    0.65019482  -0.42210386  -3.23788316
N    0.38236245  -1.53350444  -3.14987114
C   -2.79173391  -1.59173081  -1.50257565
H   -2.82704916  -1.77977536  -0.44982105
H   -2.02610521  -2.19288997  -1.94678219
H   -3.73672623  -1.83679825  -1.94056032
C   -2.48275628  -0.10315084  -1.74805989
N   -2.25270838   1.00516460  -1.93083406
C   -1.39226464   2.31794156   1.15999378
H   -1.52731560   2.93047865   2.02686156
H   -2.01298481   2.68000861   0.36720565
H   -0.36730695   2.35280204   0.85479619
C   -1.77969277   0.86506455   1.49263145
N   -2.06815062  -0.21666843   1.74029532
