30
Energy:    -94.92726616
C    1.73720263   2.79518855   1.80170243
H    2.15487126   2.02689093   1.18512163
H    2.43215397   3.04948940   2.57453669
H    1.53456118   3.66025224   1.20546393
C    0.42751147   2.28991369   2.43495309
N   -0.54761312   1.91371360   2.90643699
C   -1.55127310   0.86581389  -0.41710801
H   -1.40106280   1.92136297  -0.32681301
H   -2.32092179   0.55598858   0.25857554
H   -1.84145187   0.63134499  -1.41996379
C   -0.24210204   0.12998775  -0.07618128
N    0.73263532  -0.41786826   0.17765416
C   -0.90955013  -1.43461116   3.35206084
H   -1.41699181  -0.63532947   3.85061065
H    0.03923245  -1.08897919   2.99815515
H   -0.76180812  -2.24456156   4.03547268
C   -1.75739069  -1.91670871   2.16027716
N   -2.38864652  -2.27565225   1.27294004
C    1.90942531   0.91444302  -3.11155351
H    2.86549003   1.12226375  -3.54474051
H    1.18655985   0.78237367  -3.88932103
H    1.96995303   0.02128110  -2.52546711
C    1.48667725   2.09090527  -2.21220894
N    1.17192211   2.96683489  -1.54260603
C   -0.77257624  -3.35638483  -1.51966283
H   -1.78782686  -3.52215594  -1.22523745
H   -0.18365124  -3.12737973  -0.65616813
H   -0.38898596  -4.23788618  -1.98946381
C   -0.71106919  -2.17868939  -2.51004173
N   -0.66527439  -1.30184161  -3.24742383
