30
Energy:    -93.40685784
C    0.79701903   2.25666875  -0.12737515
H    0.44462447   2.22509157  -1.13718757
H    1.05749417   3.26251840   0.12819926
H    0.02741899   1.90952656   0.52997345
C    2.03696524   1.35406835   0.01207344
N    2.96016156   0.68204132   0.11589926
C    1.46571311  -2.10553314  -1.35493671
H    2.34423358  -2.50669101  -1.81556055
H    0.72882465  -2.87566076  -1.26113934
H    1.71246608  -1.72791761  -0.38466944
C    0.90672805  -0.96323964  -2.22344191
N    0.49053827  -0.11275022  -2.87008351
C    2.36818499  -1.34620293   2.87126761
H    2.65065221  -1.72516323   3.83121633
H    3.24599948  -1.07865728   2.32103117
H    1.82714548  -2.09831088   2.33600229
C    1.47693756  -0.10337370   3.05197047
N    0.81336333   0.82196915   3.18651196
C   -2.43513333  -0.18329128   2.10140538
H   -1.88344730   0.68417947   2.39811601
H   -2.99264630  -0.55413494   2.93600309
H   -3.10725187   0.07494277   1.30990621
C   -1.45939687  -1.26972898   1.61233331
N   -0.73291672  -2.07863123   1.24819692
C   -2.45547412   1.24216849  -3.66204850
H   -2.37989253   0.23551307  -4.01677722
H   -1.62015948   1.80900385  -4.01679661
H   -3.36269821   1.68020234  -4.02256187
C   -2.46075926   1.24473931  -2.12205971
N   -2.46469428   1.24665341  -0.97546806
