30
Energy:    -96.86698383
C   -0.81422353   2.14559902   2.20213164
H   -0.61013851   1.69239398   3.14968358
H   -1.58849117   2.87541040   2.31519824
H    0.07204854   2.61977278   1.83527994
C   -1.26915683   1.06503499   1.20362422
N   -1.60787535   0.26050595   0.46019007
C   -1.14026346  -2.39740497  -1.90837771
H   -0.59832598  -3.30517095  -1.74356000
H   -1.93192824  -2.57621958  -2.60565191
H   -1.55155297  -2.05435013  -0.98206600
C   -0.18889168  -1.32728180  -2.47523585
N    0.51944786  -0.53052646  -2.89728750
C    2.71759813   0.06902917  -0.34692621
H    2.18969904   0.77665142  -0.95148679
H    2.49515437  -0.92250734  -0.68199817
H    3.76984663   0.24530635  -0.42815750
C    2.28307888   0.22394638   1.12235718
N    1.95955956   0.33928929   2.21630545
C   -1.04532752   2.37134576  -2.58331543
H   -0.54345388   2.04145613  -3.46886378
H   -1.68391077   3.19618475  -2.82154047
H   -1.63177070   1.56940831  -2.18597449
C   -0.00452625   2.81317990  -1.53779389
N    0.77039762   3.14214550  -0.75935558
C   -0.36252850  -2.23228405   2.73689991
H   -0.53264364  -3.07021204   3.38020209
H   -1.30173629  -1.81897343   2.43364731
H    0.20166825  -1.48920484   3.26074570
C    0.42204710  -2.69063186   1.49353415
N    1.00619930  -3.03189263   0.56779183
