30
Energy:    -94.92668655
C   -1.32587018   1.24691125  -0.13083192
H   -1.08668430   1.94837053  -0.90261244
H   -1.42894484   1.76301370   0.80078655
H   -2.24522857   0.75409456  -0.36918239
C   -0.19857774   0.20381831  -0.01783237
N    0.64074271  -0.57281179   0.06630094
C   -0.13805830  -0.70968293   3.69082184
H    0.11049828  -1.36804837   2.88479779
H   -1.18716800  -0.77208731   3.89175368
H    0.40999837  -0.99328345   4.56495210
C    0.22534850   0.73586212   3.30360743
N    0.49592138   1.81213613   3.01530871
C    0.94756484  -0.09184384  -3.63401556
H    1.32748257  -0.68602156  -4.43869906
H    1.57142221  -0.21590060  -2.77360229
H    0.94025315   0.93815535  -3.92375218
C   -0.48660010  -0.54055275  -3.29722003
N   -1.55440109  -0.87463694  -3.04646045
C   -2.00535378  -3.12559265  -0.54527656
H   -2.09299491  -4.16578425  -0.31028582
H   -0.99787856  -2.90859707  -0.83303637
H   -2.66626497  -2.88519751  -1.35169188
C   -2.37800985  -2.28679356   0.69130887
N   -2.65546923  -1.66226951   1.61200294
C    2.87021862   2.35392311   0.64007747
H    2.45609801   3.04797294   1.34129009
H    3.91675727   2.54475217   0.52501139
H    2.72694972   1.35609776   0.99884993
C    2.16620824   2.51648188  -0.71990196
N    1.64204051   2.63751428  -1.73246846
