30
Energy:    -93.04553350
C   -0.98797123   0.88669217   1.88543272
H   -1.47071040   0.96021848   2.83751306
H   -0.54067938   1.82689888   1.63877416
H   -0.23106024   0.13152161   1.92669116
C   -2.02634147   0.51455488   0.81076948
N   -2.79945531   0.23748174   0.01063385
C    2.12616532  -2.06897041   1.38421979
H    2.23325889  -1.31601652   2.13687615
H    3.08964648  -2.45894791   1.13021051
H    1.50810943  -2.85940655   1.75586035
C    1.47487534  -1.45374681   0.13165391
N    0.98996034  -0.99568487  -0.80093832
C   -1.72971594   1.84364572  -2.70975074
H   -1.53248189   0.79603300  -2.61752005
H   -1.49290661   2.16512202  -3.70246088
H   -2.76446445   2.03056608  -2.51162100
C   -0.86514806   2.61971515  -1.69889041
N   -0.22143798   3.19753412  -0.94625894
C   -2.12808000  -3.10268662  -0.56199639
H   -3.00327179  -2.50875126  -0.72379969
H   -2.36337845  -4.13465973  -0.71872936
H   -1.36234426  -2.80345961  -1.24684021
C   -1.63189036  -2.90290255   0.88212347
N   -1.26245462  -2.75415423   1.95733635
C    2.94158396   2.16775256  -0.53587402
H    2.54282867   3.14306537  -0.72204417
H    2.50258351   1.46729487  -1.21523895
H    4.00229043   2.18343401  -0.67571310
C    2.62070101   1.74959635   0.91111579
N    2.38178906   1.43826005   1.98846548
