30
Energy:    -96.40333043
C   -1.80618594  -0.44574487   1.40748121
H   -1.00553778   0.15627007   1.78356726
H   -1.49288186  -1.46782859   1.36182462
H   -2.65203160  -0.36066405   2.05725460
C   -2.19205968   0.03638823  -0.00328069
N   -2.47936021   0.39535824  -1.05365705
C    1.71293280  -1.53964850   0.37110002
H    0.93710654  -2.22325327   0.64619692
H    1.66376910  -0.67352789   0.99745225
H    2.66482830  -2.01326497   0.49143909
C    1.53028338  -1.12068044  -1.09951378
N    1.39429259  -0.80873967  -2.19445260
C    1.76571315   2.27963314   3.58929507
H    2.13610919   2.55747023   4.55392635
H    0.93361290   2.90196454   3.33392884
H    2.53987109   2.40264860   2.86097800
C    1.31601253   0.80701050   3.61671579
N    0.98118997  -0.28942400   3.63713176
C    0.10344121   2.37869802  -2.15952110
H   -0.62979801   3.15376452  -2.24034407
H   -0.29584385   1.46749383  -2.55344681
H    0.97642704   2.65442682  -2.71338793
C    0.47698321   2.17779082  -0.67908108
N    0.75510221   2.02820627   0.42317381
C   -1.63217724  -2.20241432  -3.21685961
H   -1.06599776  -2.75326906  -3.93859366
H   -1.31437789  -1.18070024  -3.21859215
H   -2.67177353  -2.25299594  -3.46501310
C   -1.40820405  -2.80730115  -1.81845054
N   -1.24144583  -3.25766688  -0.77727142
