30
Energy:    -93.92662027
C    1.69233323   2.26965661   1.92801491
H    2.09811488   3.20223594   1.59554354
H    2.35648373   1.47527916   1.65826005
H    1.57473782   2.29067799   2.99132507
C    0.32167779   2.04049370   1.26439752
N   -0.69883748   1.86987150   0.77030422
C   -1.11002296  -0.81450526   2.95801618
H   -1.57190078   0.15040880   2.93543498
H   -0.05252789  -0.70668659   2.83562986
H   -1.31422228  -1.28579400   3.89667941
C   -1.67337316  -1.68013656   1.81568566
N   -2.09281299  -2.32463840   0.96516866
C    0.77030493  -2.93675906  -1.09908541
H    1.30809050  -3.83835663  -0.89218281
H    0.95566696  -2.63458835  -2.10865604
H   -0.27737710  -3.10751833  -0.96453897
C    1.23739271  -1.82826482  -0.13748803
N    1.58516080  -1.00294047   0.57846492
C    1.58666387   1.21426469  -2.23988246
H    1.16473197   1.64222621  -3.12516354
H    0.80093468   0.93357480  -1.57000044
H    2.15958241   0.34887489  -2.50019753
C    2.50022027   2.24781985  -1.55520850
N    3.18040453   3.01734865  -1.04543761
C   -3.15212414   0.06325775  -1.18977514
H   -3.79990789   0.70133620  -1.75380732
H   -2.77624513   0.59645689  -0.34165207
H   -3.69758755  -0.79545736  -0.85814714
C   -1.97572294  -0.38659936  -2.07595164
N   -1.09983878  -0.72153843  -2.73575032
