30
Energy:    -91.43887931
C   -2.24776272   2.40983590   0.10120442
H   -1.53095318   3.15459410  -0.17523633
H   -2.24633498   2.29073070   1.16455337
H   -3.22120331   2.71424416  -0.22228922
C   -1.88046010   1.07124058  -0.56576734
N   -1.60698660   0.07459551  -1.06235814
C   -0.87939467  -0.85881989   2.51141762
H   -1.80990947  -0.94462546   1.99018851
H   -0.80458429   0.11436586   2.94983751
H   -0.83164843  -1.60113785   3.28056224
C    0.28346319  -1.06760142   1.52360596
N    1.14926372  -1.22304876   0.78813528
C    1.30152624  -0.12966624  -2.72505477
H    0.51025575  -0.04394112  -3.44020679
H    0.98651788  -0.75785303  -1.91817797
H    2.16229148  -0.55751659  -3.19508283
C    1.65488293   1.26686022  -2.18057989
N    1.91797306   2.30663765  -1.77519359
C   -1.18266527  -3.26813521  -1.52439277
H   -1.87959827  -2.69157217  -2.09602170
H   -1.05211735  -4.22631268  -1.98237998
H   -0.24244205  -2.75858916  -1.48914793
C   -1.72071371  -3.45226146  -0.09323890
N   -2.12131522  -3.58935182   0.97232021
C    3.04435525   1.85021678   1.39032893
H    3.61763802   1.63716319   2.26831253
H    3.47024069   2.68946469   0.88122813
H    3.05336141   0.99825811   0.74303887
C    1.59333520   2.17514923   1.79102796
N    0.51298481   2.41707621   2.08936661
