30
Energy:    -91.40715990
C   -2.38413092   2.60146590   2.71974124
H   -3.01781090   3.45352388   2.58803303
H   -2.41236207   2.29078450   3.74325438
H   -2.72590035   1.80282699   2.09502640
C   -0.93957861   2.97173201   2.33533048
N    0.13595625   3.24741195   2.04911919
C    2.48268652  -2.82296378  -1.87640848
H    2.45681881  -3.85162485  -2.16981513
H    2.22890778  -2.74115076  -0.84016427
H    3.46582360  -2.43149979  -2.03482733
C    1.47018412  -2.02362451  -2.71753606
N    0.71633006  -1.42848008  -3.34379378
C   -2.33784940  -1.99675071  -1.30628481
H   -3.23947699  -1.73486541  -0.79307533
H   -2.50210197  -2.87972459  -1.88790093
H   -2.04839360  -1.19354538  -1.95124653
C   -1.22037675  -2.25886316  -0.27956579
N   -0.38836756  -2.45401779   0.48487318
C    1.15556118  -0.05179546   2.26394577
H    0.16074235   0.19487211   1.95671494
H    1.51856861   0.69944321   2.93384512
H    1.15092037  -0.99986959   2.75996290
C    2.07157822  -0.12351660   1.02807811
N    2.75359455  -0.17691625   0.10791847
C    0.66218162   2.18974535  -1.55097010
H    1.21609407   1.40906792  -2.02911645
H    1.28315294   2.67654477  -0.82825298
H    0.34300185   2.90100704  -2.28386175
C   -0.56939464   1.58902379  -0.84815183
N   -1.48635914   1.14175929  -0.32487168
