30
Energy:    -92.49081980
C    2.35925823  -1.28095298   2.67850910
H    2.16012413  -1.93268147   1.85358743
H    1.50626858  -1.25156814   3.32383404
H    3.20610358  -1.64330148   3.22298648
C    2.65470621   0.13627013   2.15335281
N    2.87468066   1.19145716   1.76235008
C   -0.32882087   2.73210060   1.70405728
H   -1.01037941   2.83252727   0.88534328
H    0.67601716   2.76892874   1.33821123
H   -0.48512774   3.53113312   2.39832976
C   -0.56913702   1.38454434   2.40970611
N   -0.74806332   0.38122745   2.93509374
C    1.19596140   1.45398318  -1.36789615
H    0.25176467   1.93829706  -1.50512870
H    1.72277762   1.42924959  -2.29889132
H    1.77233911   1.99417665  -0.64617678
C    0.96712389   0.01505377  -0.86918226
N    0.79674397  -1.05629458  -0.49786710
C   -2.60101627  -1.47355662   0.70029344
H   -1.68645115  -2.02795509   0.66692956
H   -3.39009925  -2.06161653   0.28025452
H   -2.83635490  -1.23455581   1.71636107
C   -2.44290480  -0.17325079  -0.10952476
N   -2.32518362   0.79488600  -0.71247121
C   -0.90462143  -1.79972885  -3.46451513
H   -1.84838065  -1.41928504  -3.13363566
H   -0.37986714  -2.22351913  -2.63389258
H   -1.06437560  -2.55305734  -4.20739727
C   -0.07163948  -0.65311038  -4.06701589
N    0.54855344   0.20059918  -4.51560510
