30
Energy:    -91.63889624
C    2.88206940  -0.85899835   1.31255218
H    3.86875632  -0.70015457   1.69480570
H    2.60489745  -1.88261432   1.45497812
H    2.19230961  -0.22711843   1.83203104
C    2.85363665  -0.52380698  -0.19025797
N    2.83246717  -0.27424176  -1.30916843
C   -0.71692455   3.99978066   2.27894647
H    0.30036011   4.14401257   2.57765916
H   -1.00930011   2.99114736   2.48406712
H   -1.34718130   4.67155725   2.82336517
C   -0.85315339   4.27701689   0.77024445
N   -0.95458195   4.48343186  -0.35305278
C    0.43924993  -2.53923753  -2.68735035
H    1.16044300  -1.78558741  -2.92566156
H   -0.54491151  -2.16245700  -2.87271965
H    0.61113178  -3.40248306  -3.29576048
C    0.57034665  -2.92378507  -1.20190872
N    0.66795411  -3.21009820  -0.09592991
C   -2.17607806  -1.96229157   1.43500404
H   -2.34898198  -2.99987586   1.63102255
H   -2.83936977  -1.37128512   2.03137185
H   -1.16339261  -1.71722733   1.67854211
C   -2.43009190  -1.67226214  -0.05595535
N   -2.61921675  -1.45632203  -1.16604238
C   -0.36424632   1.26319539  -1.82741726
H   -1.13745623   0.64450211  -2.23271377
H    0.56909129   1.01554013  -2.28833686
H   -0.59387661   2.29098660  -2.01666379
C   -0.26421438   1.03083820  -0.30833736
N   -0.18973605   0.85783771   0.82268667
