30
Energy:    -92.91271369
C    0.93528393  -3.99741502  -0.53095118
H    0.75514660  -4.13525364  -1.57663337
H    1.32761441  -4.90154827  -0.11439512
H    1.64086578  -3.20511489  -0.39197688
C   -0.38562833  -3.63807371   0.17450230
N   -1.36910755  -3.37052777   0.69974448
C    1.96598669   0.87878942  -1.35550727
H    1.45407234   1.25191630  -0.49317311
H    2.03884668   1.65345189  -2.09000613
H    2.94800412   0.55836431  -1.07645779
C    1.18452436  -0.31199873  -1.94111825
N    0.60269014  -1.19859463  -2.37713223
C   -0.16873787  -1.08564872   3.14911317
H   -0.41343864  -0.07639648   3.40685653
H    0.12096149  -1.61864076   4.03052842
H   -1.02241493  -1.55878077   2.71061501
C    0.99515667  -1.09015091   2.14068408
N    1.86172907  -1.09350300   1.38986279
C   -0.17936609   4.47784795   0.23654462
H    0.78169983   4.94819154   0.24196529
H   -0.23536892   3.77164390   1.03844151
H   -0.94026448   5.21978499   0.36089156
C   -0.38685586   3.74947468  -1.10435821
N   -0.54134142   3.20716768  -2.10272131
C   -2.39398697   0.04390307  -1.15678284
H   -2.48894571  -1.01112904  -1.00581837
H   -1.80075800   0.22755531  -2.02813256
H   -3.36473724   0.47407896  -1.28903901
C   -1.71396769   0.67890811   0.07038560
N   -1.20766242   1.15169822   0.98406828
