30
Energy:    -94.76095849
C   -1.32344628   1.45085050   2.33699632
H   -0.87552823   2.38954155   2.58825061
H   -0.72717732   0.65438549   2.73070421
H   -2.30662655   1.40121260   2.75627157
C   -1.41125056   1.31759257   0.80528723
N   -1.47662483   1.21837598  -0.33513981
C    1.67712794  -1.50002807   2.48012098
H    2.33161800  -2.32479257   2.67066351
H    0.75470580  -1.64882986   3.00155604
H    2.13622403  -0.59477188   2.81870789
C    1.40199417  -1.40171244   0.96809074
N    1.19714457  -1.32851198  -0.15768450
C   -0.51717359  -0.16099271  -3.26947824
H   -0.67590653  -0.91992396  -4.00685697
H   -1.43352422   0.36275189  -3.09371644
H   -0.18424491  -0.61286820  -2.35850836
C    0.55097654   0.82786492  -3.77228624
N    1.34626287   1.56411437  -4.14664965
C   -2.21224582  -2.28287648  -0.52301574
H   -2.93619294  -3.05240349  -0.69221659
H   -1.28306076  -2.56185850  -0.97432856
H   -2.55775101  -1.36693024  -0.95495060
C   -2.01036545  -2.09208485   0.99172611
N   -1.86005635  -1.95003181   2.11952027
C    2.08872968   2.13702271  -0.85494442
H    2.83877917   2.84784390  -1.13253977
H    1.13933858   2.45429000  -1.23296175
H    2.33459737   1.18018909  -1.26594029
C    2.02176678   2.03446878   0.68017729
N    1.97190986   1.95811272   1.82314518
