30
Energy:    -91.31535000
C   -1.15876979  -1.24909899  -3.47822608
H   -1.85912316  -0.49617493  -3.18240402
H   -1.58520952  -1.84684030  -4.25652781
H   -0.26419676  -0.78341277  -3.83568170
C   -0.82454591  -2.14268779  -2.26934501
N   -0.57570103  -2.80800527  -1.36927810
C   -2.60154577  -1.95822386   1.48354979
H   -3.44223893  -2.58435424   1.69824942
H   -2.37463905  -1.35942867   2.34078765
H   -1.75617545  -2.56727705   1.24002912
C   -2.93485404  -1.04229867   0.29124670
N   -3.18301720  -0.36035073  -0.59647714
C   -1.18822924   2.36630064  -0.57053592
H   -1.99820943   2.08589019  -1.21100625
H   -1.11210436   3.43309297  -0.53800550
H   -1.36691806   1.99124439   0.41551793
C    0.12515449   1.77429818  -1.11473832
N    1.10302838   1.33352543  -1.51992175
C    2.53072836   2.80368151   1.63050371
H    1.49168994   2.55299277   1.68004656
H    2.79785394   3.01854544   0.61690788
H    2.71964330   3.66328180   2.23902452
C    3.36981103   1.61805851   2.14220516
N    3.99454621   0.73530829   2.52319016
C    2.04531610  -1.68032775   0.72987004
H    2.75040490  -1.96388763   1.48309230
H    2.55365143  -1.16690735  -0.05936615
H    1.57046825  -2.55555594   0.33821428
C    0.98231646  -0.75147911   1.34539581
N    0.19086491  -0.05990907   1.80368272
