30
Energy:    -93.34056925
C   -2.73318757  -1.30354521   1.69928422
H   -3.10412198  -2.27904576   1.46326192
H   -2.51308526  -0.77702784   0.79416902
H   -3.47297594  -0.76527069   2.25414708
C   -1.45135757  -1.43205823   2.54308293
N   -0.49697688  -1.52774202   3.17132943
C    0.63055510   1.64560409   2.69147925
H    1.32190080   0.84340467   2.84450666
H   -0.09610578   1.64491712   3.47688525
H    1.15807213   2.57652625   2.69444899
C   -0.07784888   1.46132798   1.33656002
N   -0.60528785   1.32412604   0.32776107
C   -1.99270165  -0.66178636  -2.80053565
H   -1.77365403   0.22575060  -2.24448128
H   -2.98698165  -0.60157943  -3.19128044
H   -1.29729897  -0.75745593  -3.60810084
C   -1.87780634  -1.88813862  -1.87616602
N   -1.79226156  -2.80121361  -1.18793081
C    2.24529431   2.56161317  -1.88494387
H    2.67491810   3.51171767  -2.12499597
H    1.18207384   2.65865491  -1.81392128
H    2.48862347   1.85616113  -2.65177334
C    2.80698882   2.06982806  -0.53800412
N    3.22519592   1.70367170   0.46485375
C    1.43351388  -1.76203750   0.17390460
H    0.58561381  -2.40286877   0.29760157
H    1.40483429  -0.98639454   0.91041975
H    2.33146702  -2.33201578   0.29096876
C    1.40275201  -1.13572180  -1.23264520
N    1.37984840  -0.66940129  -2.27988547
