30
Energy:    -91.89687626
C   -0.52070185   3.13737757   0.81399759
H   -0.42025698   3.55740165  -0.16497677
H    0.44384810   3.06409302   1.27135069
H   -1.15061238   3.76545133   1.40866991
C   -1.14689911   1.73437267   0.70885846
N   -1.61313142   0.68977174   0.63057761
C    0.37525176  -1.01692065   2.74317955
H   -0.01261635  -1.24244675   1.77179060
H   -0.43531758  -0.88524160   3.42913658
H    0.99615444  -1.82261778   3.07519024
C    1.20647161   0.27775281   2.67614082
N    1.82535257   1.24169605   2.62622743
C   -0.63636473   0.10730726  -2.91590818
H    0.07000402   0.58790865  -3.56008648
H   -1.14449869   0.84481425  -2.33043197
H   -1.34774321  -0.43195374  -3.50585506
C    0.10217993  -0.86972726  -1.98233690
N    0.65205999  -1.59717387  -1.28725065
C   -2.32844228  -2.87892611   0.08430415
H   -2.43314853  -2.17783489   0.88580767
H   -1.29176809  -3.09791063  -0.06486518
H   -2.85184011  -3.77984172   0.32783005
C   -2.91647886  -2.27615328  -1.20506697
N   -3.35429883  -1.82736151  -2.16506238
C    3.30963122   0.48081594  -0.29724787
H    2.74813472  -0.36335650   0.04479711
H    3.76081614   0.97184774   0.53954304
H    4.07245970   0.15219440  -0.97178451
C    2.37049297   1.46204558  -1.02306309
N    1.67126186   2.19261566  -1.56346552
