30
Energy:    -93.40424816
C   -1.59956732  -2.62342337  -0.46841379
H   -1.53080421  -2.18946052  -1.44404080
H   -2.11867470  -1.95309001   0.18433410
H   -2.13298692  -3.54915325  -0.52661003
C   -0.18368022  -2.88042584   0.08005085
N    0.87051208  -3.07177587   0.48840770
C    2.91033366  -0.66131241  -0.62568163
H    2.06899045  -0.70915932  -1.28503923
H    3.21080381  -1.65284767  -0.35833426
H    3.72027050  -0.16332245  -1.11650482
C    2.52308227   0.11788906   0.64494084
N    2.23475601   0.69803996   1.59097701
C    0.89585254  -1.50330519   3.73175523
H    1.48321598  -2.05291439   3.02618162
H    0.75589616  -2.09167176   4.61444209
H    1.40079797  -0.59461706   3.98516220
C   -0.47482555  -1.17330182   3.11212684
N   -1.49535769  -0.92759931   2.65078534
C   -0.99467834   2.53959896  -3.97790541
H    0.03331571   2.73505370  -4.20134637
H   -1.59654988   2.77897619  -4.82957923
H   -1.11630028   1.50472117  -3.73472821
C   -1.43293232   3.40321794  -2.78053508
N   -1.75923232   4.04622153  -1.88903845
C   -1.06662744   1.95499871   0.94142376
H   -0.26497009   1.91305900   1.64887463
H   -1.96064594   1.57820332   1.39270553
H   -1.22087725   2.96907976   0.63688194
C   -0.71169136   1.09814408  -0.28797468
N   -0.44742532   0.46017685  -1.20331770
