30
Energy:    -91.75920239
C   -2.66641054   2.32143424   1.25349848
H   -2.46407554   3.36539509   1.37226919
H   -1.96760803   1.75456111   1.83248811
H   -3.66069035   2.11053162   1.58790368
C   -2.53235502   1.93832601  -0.23205099
N   -2.43254460   1.65308451  -1.33811008
C   -0.32425203  -1.25965496   2.49984454
H    0.37627616  -0.97160511   1.74407491
H   -0.10910967  -2.25629823   2.82436735
H   -0.24810402  -0.58975606   3.33070916
C   -1.75173188  -1.20396370   1.92469259
N   -2.81455551  -1.16249902   1.49646582
C    1.18634507   1.43958549  -1.79874275
H    0.22850436   1.51642906  -2.26941930
H    1.63074831   0.49816551  -2.04599417
H    1.81707726   2.23285115  -2.14197095
C    1.01752805   1.54221987  -0.27146838
N    0.89183610   1.61863583   0.86565681
C   -1.88840945  -1.60366844  -2.36227198
H   -1.94751541  -0.64417193  -2.83213699
H   -2.70051229  -1.71462045  -1.67446553
H   -1.94475116  -2.36968343  -3.10721878
C   -0.55342771  -1.72244943  -1.60377687
N    0.44052687  -1.81088728  -1.03904279
C    3.57066771  -1.04817373   0.75225450
H    3.17574095  -0.36602541   1.47586123
H    4.39211085  -1.58480284   1.17905593
H    2.80748327  -1.73844751   0.45904688
C    4.05521893  -0.26413297  -0.48147570
N    4.41598934   0.31962101  -1.40004391
