30
Energy:    -91.87552650
C   -2.60869991   0.86381609   0.26267768
H   -3.13986001   1.51278375  -0.40185984
H   -3.30539027   0.24981247   0.79420489
H   -1.94371473   0.24310874  -0.30071934
C   -1.79859320   1.70685010   1.26498540
N   -1.19543193   2.33452724   2.01124907
C    0.38559473  -0.92426390  -2.32972931
H   -0.55887439  -0.83212584  -1.83537231
H    0.24710608  -1.40148156  -3.27734911
H    0.80679946   0.04807123  -2.47822190
C    1.33802612  -1.76947440  -1.46364982
N    2.04715458  -2.39877203  -0.81881428
C    0.39405764  -4.22084409   1.55070206
H    0.77668668  -4.55444394   0.60878574
H   -0.24174647  -4.97528520   1.96479242
H    1.20760600  -4.03329388   2.21992779
C   -0.41246242  -2.92480823   1.34719171
N   -1.01295326  -1.95985063   1.19566900
C    1.74100362  -0.00465054   2.07849471
H    2.04137913  -1.01188480   1.87811039
H    0.74820445  -0.00121622   2.47753995
H    2.41197031   0.43324747   2.78768306
C    1.77188565   0.80982666   0.77186806
N    1.79487873   1.41624196  -0.20097487
C    0.03362368   3.94191137  -1.44937227
H    0.12470653   3.72038262  -0.40652563
H   -0.45601126   4.88535325  -1.57214899
H    1.00719635   3.98517840  -1.89116783
C   -0.79397757   2.84062195  -2.13773103
N   -1.41016432   2.02066192  -2.65024542
