30
Energy:    -94.54569718
C    1.28880763   1.20390694  -2.83091521
H    1.64594488   1.06808418  -1.83146268
H    1.37196221   2.23558062  -3.10227074
H    1.87337839   0.61027791  -3.50231724
C   -0.18623101   0.76893255  -2.91251370
N   -1.28446432   0.44507435  -2.97326749
C   -0.18059754   0.81833910   3.09053535
H   -1.12449177   0.31779389   3.14900224
H   -0.20489481   1.69773752   3.69960608
H    0.59186394   0.16475722   3.43843342
C    0.10110785   1.21374372   1.62906443
N    0.31085032   1.50814043   0.54093290
C   -1.10128996  -2.08750511  -0.33927796
H   -1.09253482  -1.08065126  -0.70131228
H   -2.10650873  -2.37680591  -0.11402396
H   -0.70184964  -2.73923503  -1.08800664
C   -0.24202116  -2.18224138   0.93519533
N    0.39774352  -2.25277684   1.88409863
C   -3.14442057   1.92844648  -0.59132613
H   -3.55758834   1.53042353  -1.49452616
H   -2.13150899   2.22707734  -0.76374665
H   -3.71814346   2.77626181  -0.27995769
C   -3.18187131   0.85127458   0.50862757
N   -3.20975508   0.04927114   1.32759309
C    3.49263016  -1.39349126   0.85770023
H    2.84819894  -0.83301657   1.50227504
H    4.42198002  -0.87546099   0.74433102
H    3.67185438  -2.35845429   1.28387404
C    2.82461024  -1.55690708  -0.52021293
N    2.32723904  -1.67857758  -1.54613190
