30
Energy:    -95.28477721
C   -3.51838331   1.57010552   1.20248838
H   -3.03783722   0.65608564   1.48274416
H   -4.45038307   1.65660756   1.72094082
H   -2.88949454   2.39691776   1.45896357
C   -3.77375766   1.57112104  -0.31618964
N   -3.96389547   1.57187714  -1.44691445
C    1.69430389  -3.24001436   0.38677474
H    0.69990073  -3.19077383   0.77874147
H    2.35499896  -2.68509174   1.01957960
H    2.01198575  -4.26100526   0.34734245
C    1.71736969  -2.64009294  -1.03137978
N    1.73454324  -2.19342417  -2.08726028
C    2.57105683   1.24881966  -1.62560889
H    3.40424414   1.84584840  -1.93261992
H    1.71810771   1.87716715  -1.47542123
H    2.35222924   0.52546490  -2.38308593
C    2.91444782   0.52628274  -0.30969740
N    3.17011801  -0.01167884   0.67005851
C   -1.10143550  -0.07908837  -2.19519032
H   -2.03701351  -0.14054667  -2.71076462
H   -0.34171164  -0.55852369  -2.77644802
H   -0.84235763   0.94852850  -2.04760541
C   -1.22121569  -0.77960725  -0.82898170
N   -1.31039749  -1.30117540   0.18822272
C    0.46967454   0.45817032   2.71847992
H   -0.04655735   0.78540130   3.59673085
H    1.52412466   0.46835584   2.89994699
H    0.15974361  -0.53589308   2.47214710
C    0.14111091   1.40325269   1.54781120
N   -0.10351966   2.10690947   0.67619512
