30
Energy:    -94.64361925
C    1.63813315  -0.05906125   1.60841160
H    2.30351142   0.60212823   2.12319350
H    1.45808041  -0.92448368   2.21134122
H    0.71223722   0.44277350   1.41926166
C    2.27222632  -0.48738615   0.27197468
N    2.74433751  -0.80629350  -0.72306335
C    0.96696887  -3.71220134  -1.44451345
H    1.96147270  -3.33778053  -1.56969881
H    0.82317409  -4.56167828  -2.07902986
H    0.81996994  -3.99997772  -0.42447661
C   -0.04584946  -2.61429082  -1.81920201
N   -0.79993875  -1.79684654  -2.09817468
C   -2.54237349  -0.79981662   0.93220449
H   -3.42100666  -1.28992527   0.56792789
H   -2.15052929  -0.15790583   0.17108180
H   -2.79015667  -0.21892499   1.79595649
C   -1.48513682  -1.85434980   1.30878171
N   -0.69797607  -2.63949769   1.58916056
C   -0.89798730   3.97264969   1.82023835
H   -1.69419467   4.08669041   1.11458353
H    0.04052368   4.00510250   1.30736113
H   -0.94033481   4.76593051   2.53704469
C   -1.04184964   2.62007474   2.54234958
N   -1.14896169   1.61302121   3.07999421
C    0.78285021   0.96713953  -3.16456000
H   -0.08686957   0.52726794  -3.60614881
H    1.51791968   0.20882728  -2.99270396
H    1.18238679   1.70797901  -3.82518582
C    0.40161131   1.62537471  -1.82553672
N    0.11776161   2.11546072  -0.82857302
