30
Energy:    -91.66502904
C   -1.96547639   1.31106795  -0.00088682
H   -2.21766583   2.34419509   0.11721899
H   -2.06969386   0.80887833   0.93817835
H   -2.62050591   0.86388396  -0.71912208
C   -0.50976142   1.19052526  -0.48870173
N    0.57408454   1.10077575  -0.85190211
C    1.97344301   3.62607400   1.29476982
H    1.99434785   2.64100292   1.71202052
H    2.52404346   4.29234000   1.92550577
H    2.41557130   3.61020590   0.32051632
C    0.51456580   4.10775402   1.18864898
N   -0.57163460   4.46638670   1.10963720
C    2.35524129  -1.03101345   1.44152442
H    2.45322456  -0.51805869   0.50762032
H    2.43086507  -2.08584834   1.27872551
H    3.13334796  -0.71582179   2.10492726
C    0.98548254  -0.70475091   2.06515389
N   -0.03436512  -0.46183362   2.52947438
C    0.40752200  -1.50814708  -3.32602486
H    1.04803823  -1.05922008  -2.59588536
H    0.59917370  -1.07282718  -4.28449515
H    0.59694819  -2.56041290  -3.36789925
C   -1.06281246  -1.26632503  -2.93713070
N   -2.15754330  -1.08627751  -2.64758131
C   -2.28310183  -2.61471543   0.62838885
H   -2.21583056  -2.01767058   1.51377701
H   -2.77773140  -3.53580653   0.85605501
H   -2.83949647  -2.08584206  -0.11700839
C   -0.86723048  -2.90951393   0.09923655
N    0.18695011  -3.12900480  -0.29474139
