19
Energy:   -434.82428109
O    0.74958140   1.33767682  -3.87183795
H    0.10183943   1.12176804  -4.54269232
H    1.48311502   1.71345138  -4.35861691
O   -1.02503081  -0.66815079   3.75832094
H   -1.42514725   0.00997163   4.30264498
H   -1.03610459  -1.45308323   4.30603463
O   -0.19169508   1.73928099  -1.32386820
H   -0.43898502   2.65893862  -1.22738308
H    0.14442089   1.67365293  -2.21770871
O    1.12831623  -0.13541046   2.05270392
H    1.95506686   0.01358659   2.51152319
H    0.49354072  -0.30123296   2.74969374
O    1.21600728  -1.38423697  -1.71431435
H    1.27944809  -0.99091250  -2.58466082
H    1.64151037  -2.23688652  -1.80468975
O   -1.81723024  -0.84247994   1.07607192
H   -1.71710163  -0.88424341   2.02710395
H   -2.65409516  -1.27395774   0.90368904
Na   0.09002414  -0.13899641  -0.03327236
