19
Energy:   -434.92276639
O    1.01771759   0.39236168  -3.83180058
H    0.67712144  -0.08171503  -4.59040284
H    1.64432832   1.01544663  -4.19970815
O   -0.22035434  -0.28801229   3.88156118
H   -0.37584333   0.43668512   4.48725804
H   -0.06313105  -1.04402495   4.44720908
O   -1.02478100   1.49833281  -1.74483329
H   -1.78709280   2.06052865  -1.88284922
H   -0.53733094   1.54883364  -2.56707045
O    1.15792294   0.40882372   1.56757657
H    0.86104218   0.19630288   2.45240907
H    2.05391641   0.72468429   1.68445114
O    0.83539843  -1.21267176  -1.56174855
H    0.97314962  -0.73838641  -2.38169359
H    1.13261363  -2.10351154  -1.74694967
O   -1.84103727  -0.81143655   1.66110193
H   -1.41530297  -0.68137228   2.50848935
H   -2.64649482  -1.28565392   1.86747022
Na  -0.45212354  -0.03196000  -0.03959615
