19
Energy:   -439.69169620
O    0.05972678   0.33070239  -3.34268634
H   -0.36051843  -0.27099851  -3.95716323
H    0.46722110   0.99520378  -3.89822044
O   -1.64240006   0.54261926   2.35047443
H   -1.43173395   1.04808383   3.13555863
H   -2.59404199   0.44316263   2.37726742
O   -1.24399195   1.03545509  -0.97547807
H   -0.90603947   0.87919766  -1.85729641
H   -1.97035095   1.64598299  -1.10153418
O    1.62176735   1.01670104   1.95610037
H    2.18680144   0.62493183   2.62204721
H    1.98072942   1.89395421   1.82266512
O    1.34648297  -0.67760027  -1.07530464
H    1.01489654  -0.39872475  -1.92883304
H    2.24538643  -0.95815130  -1.24704731
O   -0.19830450  -2.30690865   1.36059776
H   -0.64626293  -2.70625580   2.10631014
H    0.15305588  -3.04783529   0.86683118
Na  -0.05803780  -0.06461873   0.71770049
