19
Energy:   -423.15761281
O    2.15992304  -1.47416202   1.61936283
H    3.07625546  -1.72769686   1.50851686
H    1.95257155  -1.71255958   2.52291350
O   -0.86378369   2.75915445   2.37585107
H   -1.51138531   3.42759907   2.15218665
H   -0.50164654   3.04676574   3.21392522
O    1.38868144   1.60025407  -0.48847921
H    1.65642133   1.92435151  -1.34842575
H    1.41090319   2.37252337   0.07662093
O    0.09002513  -1.99412706  -1.51423967
H   -0.49631690  -1.75750522  -2.23288074
H    0.29407256  -2.91709879  -1.66497013
O   -1.56375036  -1.32280447  -3.57599942
H   -2.49767740  -1.51815911  -3.65247618
H   -1.27598876  -1.17024643  -4.47608339
O   -1.05835094   0.15952479   1.57055612
H   -1.88396467  -0.16854838   1.92687313
H   -1.01862964   1.07174211   1.85780797
Na   0.63082110  -0.50804647   0.15342180
