19
Energy:   -434.00256482
O   -1.75215303   1.24036642  -0.48439760
H   -2.23368092   1.46948067  -1.27929973
H   -1.97766010   1.92997300   0.13995901
O    2.22749491  -2.46468456  -2.16020232
H    2.19570707  -2.29819916  -3.10227663
H    2.93096915  -3.10493130  -2.05324463
O    1.94173492  -0.06156625  -0.70623067
H    2.66617578   0.55260865  -0.82542165
H    2.20238912  -0.83890833  -1.20022513
O   -2.11258810   3.13687559   1.51309058
H   -2.87370507   3.33093677   2.06014914
H   -1.66880950   3.97892817   1.41189840
O   -0.10799727  -2.46351276  -0.58240067
H    0.67084984  -2.65724519  -1.10402964
H   -0.61152678  -3.27751933  -0.59152071
O   -0.35624602   0.48014056   2.53108859
H   -0.87927030   1.24134787   2.78256600
H   -0.02742620   0.13067134   3.35932807
Na  -0.16584225  -0.28479376   0.26010290
