19
Energy:   -430.33667145
O    1.36719510   1.32416500  -0.42468667
H    2.16704768   1.78172831  -0.68373013
H    0.66560088   1.95311080  -0.59328257
O    1.42562018  -1.90929298  -1.56034930
H    1.99037664  -2.68210541  -1.55379731
H    1.39600652  -1.64147469  -2.47884167
O   -1.55113725  -0.04596541  -0.72429140
H   -1.59663363   0.90301158  -0.84093013
H   -2.43949473  -0.35289763  -0.90552455
O   -0.95466072   2.93875114  -0.93450003
H   -1.44221894   3.48591743  -0.31876642
H   -1.09905941   3.34951651  -1.78693928
O    0.42926549   0.21120507   2.49683832
H    0.97797354   0.96286475   2.72080048
H   -0.02172673  -0.00811263   3.31215275
O   -0.51019330  -2.79374837   1.19095190
H   -0.99517730  -3.49513688   0.75612261
H   -0.30500215  -3.14522381   2.05731987
Na   0.43279635  -0.77405135   0.27912336
