19
Energy:   -435.96620529
O    0.21779632  -1.42739297   1.80342654
H    0.25449850  -0.94124007   2.62716203
H    0.35880547  -2.33965157   2.05667054
O    1.50229948   0.44281605  -1.61805782
H    1.20469761   0.04730613  -2.43734829
H    2.37102228   0.78988508  -1.82077837
O   -0.02785983   0.85678527   3.93458739
H   -0.61722121   0.60946822   4.64713162
H    0.73085676   1.24161448   4.37332132
O   -1.33136308  -0.81690707  -1.68576510
H   -0.89049224  -0.83669185  -2.53516095
H   -2.13404105  -1.32075799  -1.82020532
O   -0.89762191   1.77679928   1.43911364
H   -1.19588828   2.68580897   1.40796232
H   -0.64872426   1.63706860   2.35276409
O    0.37929653  -0.71052868  -3.88545082
H    0.26590493  -0.23448268  -4.70810167
H    0.65771705  -1.58679667  -4.15166177
Na  -0.12825986   0.06825798   0.03048248
