19
Energy:   -434.66733597
O    3.52547653   1.99670254  -0.85848205
H    3.73924345   2.90257523  -1.08193278
H    4.35547757   1.52702049  -0.94051186
O    1.28103415   1.28107975   1.46961336
H    1.18989850   1.33914828   2.42069390
H    2.04109817   1.82672152   1.26759952
O   -2.38862733   0.29077929  -0.20872164
H   -3.04099881   0.96283056  -0.40618151
H   -2.90286832  -0.49095094  -0.00701420
O   -0.41488439  -2.02663748   0.75476653
H   -1.33319475  -2.29201475   0.70463838
H    0.01390822  -2.73540404   1.23436919
O   -3.20655942  -2.31042348   0.57336744
H   -3.76736877  -2.74651784  -0.06815141
H   -3.61609011  -2.49909610   1.41771280
O    1.23219150   0.82749062  -1.82827102
H    1.30759699   0.74968442  -2.77931889
H    2.04542133   1.25334426  -1.55709256
Na  -0.08616754   0.12572238  -0.06059462
