19
Energy:   -435.29611734
O   -1.07919247   1.56205619  -1.06206807
H   -0.84270458   1.67420213  -1.98278986
H   -1.66762697   2.29338747  -0.87463473
O   -0.10652818  -0.93828397   3.76289431
H   -0.49465099  -0.25897645   4.31437761
H    0.21147233  -1.59645987   4.38088461
O   -0.04583073   1.48356707  -3.71496608
H    0.56867823   2.15973910  -4.00027640
H   -0.64574987   1.37752300  -4.45326380
O    1.31466385   0.32489168   1.70404442
H    1.00838575  -0.02462386   2.54086248
H    2.10595415   0.81634684   1.92441532
O    1.19234926  -0.91709807  -2.02032647
H    1.14541463  -0.35707500  -2.79518333
H    1.65388058  -1.70094108  -2.31833792
O   -1.28369481  -1.66113503   1.27281773
H   -1.00475477  -1.62681526   2.18782946
H   -2.01234017  -2.28184103   1.26717311
Na  -0.01492300  -0.28057917  -0.11505383
