19
Energy:   -433.21272118
O   -1.74360418   0.66978451   2.21249935
H   -1.47819285   0.88353909   3.10698113
H   -2.68258326   0.85431888   2.19020138
O   -1.05623292  -2.12381222  -0.41356671
H   -1.24228863  -3.04239383  -0.21908549
H   -1.24396009  -2.03351212  -1.34782377
O    3.23237390   2.10539603   1.52880933
H    3.34562976   2.74831497   2.22885233
H    3.95752077   2.27510728   0.92748417
O   -1.47879256  -1.37857114  -3.07480627
H   -0.90687057  -1.72165212  -3.76141571
H   -2.35653177  -1.41073871  -3.45529408
O   -0.67011923   0.81449763  -1.54008115
H   -0.95445795   0.17745228  -2.19548680
H   -0.60850321   1.64073930  -2.01941404
O    1.70404086  -0.14458135   1.58828429
H    2.24740490   0.64334467   1.57563684
H    2.24819403  -0.80448364   2.01800295
Na  -0.34550083  -0.13701685   0.54796795
