19
Energy:   -435.57203674
O   -0.20868560  -0.39129754  -4.06696493
H    0.53066129  -0.21091216  -4.64753288
H   -0.91556517  -0.65843398  -4.65449472
O    0.42345170   0.09188968   3.92944881
H    0.44551455   0.82511637   4.54436645
H    0.51113917  -0.68600333   4.48028928
O   -0.59143878   1.74289959  -1.67688017
H   -0.84031590   1.40601055  -2.53757628
H   -0.48070503   2.68424245  -1.81045976
O    1.73306920   0.22848318   1.48655803
H    1.43293387   0.15493595   2.39250584
H    2.68761297   0.18924658   1.54604359
O    0.06954537  -1.47569241  -1.52488164
H   -0.07533524  -1.20710111  -2.43213032
H    0.28781803  -2.40592570  -1.58193357
O   -1.47559704  -0.10605188   1.83431135
H   -2.36544560  -0.40626725   2.01943863
H   -1.07686966   0.00915999   2.69685095
Na  -0.07295235   0.18773456   0.01476966
