19
Energy:   -423.11033320
O   -0.42293683  -0.98388950  -2.20104193
H   -0.69657865  -1.51675319  -2.94763974
H    0.32554850  -0.48297241  -2.52520797
O    0.79588120   0.77222534   0.53677309
H    1.41896803   1.20744922  -0.04509873
H    1.11986702   0.95868776   1.41796365
O   -2.89001544   0.78348999   0.33379443
H   -3.77385246   0.74704691  -0.03190472
H   -2.88243089   1.58024829   0.86421930
O   -1.18640846  -2.47642484   1.24734353
H   -1.64709631  -2.59567978   2.07787156
H   -0.75220961  -3.31506445   1.09118078
O    1.68755069   1.25653029   3.08897445
H    2.39518872   0.78002486   3.52305147
H    1.57349183   2.04821123   3.61477260
O    1.71881061   0.47558770  -3.08492838
H    2.61097007   0.14279489  -3.18256186
H    1.65852858   1.19023196  -3.71886964
Na  -1.00509462  -0.53869234  -0.01749177
