19
Energy:   -430.32024790
O   -0.16924439   0.93505322   0.55238544
H   -0.89913136   0.83855151   1.16409148
H    0.59045058   1.10331612   1.10986459
O   -1.90946604  -1.64912462  -0.59443514
H   -2.50834322  -2.26076647  -1.02277171
H   -2.37190492  -1.37552148   0.19772864
O    2.24564903  -0.74220626  -0.56581395
H    2.45923751  -0.15029308   0.15547004
H    3.03568420  -1.26915800  -0.68580619
O    2.49831321   1.04623647   1.57995499
H    2.91517945   1.90697670   1.54019784
H    2.85742216   0.64191513   2.36976311
O   -2.41768199   0.40660374   2.07805138
H   -2.48778397   0.07496366   2.97322311
H   -3.14032827   1.02883969   1.99536746
O   -0.21100304  -0.11975894  -3.47659636
H   -1.02514262   0.01785680  -3.96081791
H    0.48002155   0.09771993  -4.10223188
Na   0.04298222  -0.52332015  -1.21233673
