19
Energy:   -428.98144325
O    1.50351654  -1.02403828  -1.03541424
H    1.82774556  -0.89215811  -1.92632109
H    1.84904763  -1.87888581  -0.77836208
O    2.32163759  -3.48744368  -0.05437052
H    2.21675737  -4.32201534  -0.51123170
H    3.22064958  -3.50482860   0.27381701
O   -1.85901738   3.67127787  -0.56577328
H   -1.65961638   4.20980424  -1.33158034
H   -2.45327933   4.20901557  -0.04239699
O    0.33968503   2.04746778   1.07812187
H   -0.14396461   2.86715731   0.97602413
H    1.18161788   2.31031435   1.44999901
O   -2.15717977   0.94338484  -0.50592099
H   -2.05396221   1.89435867  -0.54094600
H   -3.08041663   0.79451216  -0.71013283
O   -0.34278919  -2.23226007   1.16515484
H    0.32635605  -2.86136549   0.89552014
H   -0.76287117  -2.63879129   1.92310955
Na  -0.18939358  -0.06874245   0.22113205
