19
Energy:   -423.92764063
O   -0.01462788   2.44752977  -0.48900347
H   -0.88826833   2.79108699  -0.30204719
H    0.50001477   3.21813177  -0.72889373
O   -2.55836034   3.34707870  -0.05976197
H   -3.21633215   3.08900824  -0.70528857
H   -3.00650914   3.98199285   0.49905690
O    0.77428426  -0.72385189   1.95020056
H    1.02170278  -0.45425500   2.83469670
H    0.70416476  -1.67714522   2.00066774
O   -0.45485195  -3.51952845   0.82694441
H   -1.29490762  -3.75794742   1.21898359
H    0.01846286  -4.34807335   0.75132495
O    2.78606342   0.32498019  -1.07402761
H    3.02604146   0.29692205  -2.00023230
H    3.62178627   0.38579297  -0.61131715
O   -0.38233545  -1.58087049  -1.22389805
H   -0.49983899  -2.31640605  -0.62272236
H   -0.75752122  -1.88429441  -2.05057901
Na   0.60803159   0.24655658  -0.19867335
