19
Energy:   -423.36384337
O    1.69575081   1.38737309   0.60503950
H    2.41116801   0.78911470   0.82067106
H    2.13199617   2.19045813   0.32047624
O    0.19678948  -1.67129122   0.42720052
H   -0.07399996  -2.58025800   0.29803272
H    1.13017738  -1.72577423   0.63226264
O   -1.50823165   0.07964652  -3.50170598
H   -1.73040604  -0.81697964  -3.75256831
H   -1.24785973   0.50055996  -4.32101678
O   -1.92707564   1.32017373  -1.09733772
H   -1.80652358   0.93973607  -1.96737579
H   -2.60755201   1.98259723  -1.21724963
O    2.88685259  -1.60754750   1.07956234
H    3.59040615  -1.90510163   0.50275580
H    3.25377755  -1.67651666   1.96094828
O   -1.73528609   0.70974841   2.54579984
H   -1.31149732   0.94031958   3.37252341
H   -2.65213194   0.56352624   2.77870459
Na  -0.54453059   0.52014623   0.54291303
