19
Energy:   -424.81223023
O   -1.28823641  -0.26988129  -3.76278182
H   -2.13554053  -0.07266330  -4.16204693
H   -0.79780192  -0.72004445  -4.45057466
O   -1.27115404  -1.59479404  -0.65886447
H   -1.63467973  -2.38670442  -0.26268412
H   -1.24501320  -1.78577729  -1.59645389
O   -1.52882146   1.50436767   1.65970574
H   -1.21699597   1.86199221   2.49103083
H   -2.41067849   1.86297273   1.55989373
O    2.30622019  -0.88127666   3.60828651
H    2.52525733  -0.39779408   4.40484107
H    2.48230447  -1.79638592   3.82692141
O   -0.16633510   1.31896566  -1.84896384
H    0.22874382   2.06181320  -2.30538692
H   -0.57851088   0.80313903  -2.54197601
O    1.95423626   0.11686111   1.08960304
H    2.09485358  -0.21795818   1.97524103
H    2.83546696   0.23693620   0.73570155
Na  -0.17658105   0.28218750   0.21545990
