19
Energy:   -426.52635764
O   -1.40027112   0.29987332  -1.72869732
H   -1.93619371   0.81131472  -2.33487099
H   -0.73840531  -0.11309959  -2.28333133
O    1.04636406  -1.73070817   0.97409266
H    0.18438925  -2.12676234   1.10204717
H    1.60414432  -2.15375163   1.62689221
O    1.39091239   2.21212355  -0.32929564
H    1.20428275   3.13778914  -0.17262898
H    2.21557154   2.21247545  -0.81526789
O   -0.51093087   1.34563491   2.20562231
H   -1.35476163   1.26762560   2.65070214
H    0.03105261   1.85677573   2.80663880
O    1.22827468  -0.83372833  -1.68534646
H    1.85098805  -0.97257394  -2.39891622
H    1.44283998  -1.51142132  -1.04431153
O   -1.75229907  -1.28490730   0.56800052
H   -2.50840703  -1.68537297   0.99713902
H   -2.07269894  -1.03510627  -0.29870313
Na   0.08350513   0.33760690   0.17805113
