19
Energy:   -424.84936914
O    1.86669689   0.29487587   2.63632928
H    1.70992447  -0.26068667   3.39987661
H    2.68381057   0.75182123   2.83572342
O   -1.86163006   0.16538443   1.52217906
H   -2.38363196   0.40417025   2.28816026
H   -2.40786972  -0.45898662   1.04467003
O    1.09381992   2.24597726  -0.32855136
H    1.13400232   2.12972559  -1.27781569
H    1.27986651   3.17500720  -0.19245621
O   -2.42417301  -2.50246670  -0.28757242
H   -3.01002915  -2.40214544  -1.03786575
H   -2.64439621  -3.36016240   0.07587177
O    0.22341365  -1.69067786  -0.28974441
H    0.78501610  -2.29311973  -0.77749263
H   -0.65016045  -2.07782993  -0.34643140
O    1.29629941   1.75483712  -2.99417208
H    0.75478582   2.14769734  -3.67875642
H    2.10552377   1.50664703  -3.44115023
Na   0.38641424   0.36505374   0.79869878
