19
Energy:   -436.51794222
O    0.73225586   1.75465936   1.42731593
H    0.54008605   2.23607629   2.23201486
H    1.52456432   2.16768332   1.08396427
O   -0.19712165  -2.33692533   0.94419949
H    0.31259545  -3.08976595   1.24361779
H   -1.08239054  -2.67981425   0.82189643
O   -2.02611259  -0.02871456  -0.88198662
H   -2.57308288  -0.79075914  -0.69134717
H   -2.50980701   0.45184527  -1.55380044
O    2.88540743   2.67417835  -0.12870893
H    2.73846704   3.53825944  -0.51342212
H    3.79395732   2.69659700   0.17173465
O   -3.14618531  -2.50511604  -0.02173758
H   -3.25074957  -3.17855840  -0.69387859
H   -3.85437272  -2.67422313   0.59963609
O    1.74777077   0.42307211  -1.23792414
H    2.18349512   1.22247582  -0.94240790
H    2.12639447   0.24780613  -2.09940993
Na   0.06430209  -0.13365271   0.20868825
