19
Energy:   -444.01809100
O    0.06797160  -0.00527031  -3.99487936
H    0.52900181   0.60179511  -4.57380472
H   -0.37312409  -0.61388379  -4.58754797
O   -0.06796029   0.00525836   3.99487920
H   -0.68566133   0.45714723   4.56974763
H    0.52981608  -0.44509006   4.59160490
O   -1.24213459   0.94113700  -1.71347788
H   -0.91393532   0.70740566  -2.58174440
H   -1.99731748   1.50350118  -1.88574855
O    0.91449249   1.27332545   1.70497821
H    1.47429535   2.03154438   1.87218065
H    0.66707530   0.96109697   2.57534018
O    1.29966044  -0.94558633  -1.66773388
H    1.00120204  -0.71416442  -2.54727827
H    2.06025271  -1.50835513  -1.81272535
O   -0.97203597  -1.26886389   1.67623352
H   -0.75434511  -0.95433918   2.55368251
H   -1.53724212  -2.02666055   1.82629379
Na  -0.00000907   0.00000245  -0.00000010
