19
Energy:   -430.27691545
O   -0.71802269   0.08517402   0.69957104
H   -1.61412306   0.22806939   1.00422967
H   -0.17787120   0.19706242   1.48184287
O    1.35232454   0.34764276   2.58118154
H    1.46308755   1.18212609   3.03681406
H    1.44438196  -0.31411282   3.26662799
O   -3.26549634   0.50488258   1.59419717
H   -3.85234414  -0.12475163   2.01300773
H   -3.75289135   1.32867173   1.60122513
O    2.38289926  -0.05762002   0.02008916
H    3.33649569  -0.13906501   0.00420132
H    2.16987629   0.08892438   0.94170611
O    0.52639217   1.29084198  -2.99857074
H   -0.06606447   1.37081881  -3.74612053
H    1.14645279   2.01217235  -3.10552490
O   -0.17198354  -2.23858122  -2.22677739
H    0.17595350  -2.68634642  -2.99793107
H   -0.83663839  -2.83512769  -1.88239666
Na   0.45078406  -0.22992861  -1.24871320
