19
Energy:   -434.72555464
O    0.74833250   2.09969784  -1.06519008
H    1.02663229   2.79120670  -0.46469314
H    0.87248590   2.47468104  -1.93708766
O    0.87039612  -2.03150123  -0.85350090
H    1.68685806  -2.50854221  -1.00200559
H    0.18616486  -2.62417600  -1.16462152
O   -1.47590063  -3.34184136  -1.65412588
H   -1.81083866  -3.46358935  -2.54250969
H   -1.77530223  -4.11553150  -1.17663861
O   -2.06539101  -0.82338106  -0.59149817
H   -2.03014909  -1.70322801  -0.96681030
H   -2.98750909  -0.57369052  -0.65137079
O    1.50888009   3.32646397   2.23229285
H    0.96101391   4.05065982   2.53497232
H    2.39196019   3.55659811   2.52115209
O    0.46019427   0.80274503   1.97298543
H    0.53710577   0.35260255   2.81422750
H    0.82981534   1.67145365   2.13096467
Na   0.04495507   0.04714922  -0.17925350
