19
Energy:   -423.54531227
O    0.05731471   2.94025148  -2.35281121
H    0.86411001   3.07146440  -2.85090394
H   -0.54966342   3.59229925  -2.70301557
O   -0.01472452   1.31227428  -0.14769226
H   -0.03123739   1.93765717  -0.87216132
H    0.14329138   1.84890656   0.62902430
O   -2.15346524  -1.86188823  -1.34572897
H   -2.26800124  -2.79063583  -1.54707752
H   -2.95943397  -1.44816509  -1.65472639
O    0.15946042  -1.36880778   1.91101956
H    0.23513111  -0.55574927   2.41046090
H    0.30935774  -2.06090068   2.55504600
O    0.38659043   1.12302287   3.10563927
H    1.22821504   1.39100115   3.47453967
H   -0.26565895   1.51444469   3.68666556
O    1.42684256  -2.32654941  -1.21562106
H    1.98618992  -2.87338897  -0.66396096
H    1.74250467  -2.48167493  -2.10585999
Na  -0.24982851  -0.97499054  -0.32504455
