19
Energy:   -422.81997624
O    2.66446032  -0.49254565   1.30212059
H    3.24373693  -1.23490488   1.13015186
H    3.08683291  -0.01962993   2.01918681
O    0.05879689  -2.22816277  -0.59495448
H    0.21439966  -2.65485062  -1.43754401
H   -0.55657792  -2.80581556  -0.14344263
O   -2.44182741  -1.80838325   2.32581712
H   -2.26082026  -2.27959651   3.13909832
H   -3.36509163  -1.98584062   2.14602863
O   -1.10377580   0.43239687   1.46096452
H   -1.60691420  -0.31738712   1.77862404
H   -1.54186608   1.19382255   1.84114826
O    1.38353537   1.24717173  -1.64092486
H    0.78689053   1.84664015  -2.08912615
H    2.23579041   1.41000730  -2.04512502
O   -0.33688327   2.97271756  -2.86638007
H   -0.89536162   2.79855761  -3.62400933
H   -0.30750482   3.92745053  -2.80430184
Na   0.69902352  -0.07774164   0.12403858
