19
Energy:   -428.06396722
O   -0.19329816  -1.00422639  -2.90466100
H    0.39272528  -1.73709768  -3.09362671
H   -0.68657279  -0.87629211  -3.71493552
O   -0.54467996  -0.34064835   3.16403542
H   -0.27594035  -1.13006756   3.63395900
H   -1.06432379   0.15170869   3.79947753
O   -0.54322284   2.18189793  -1.78077642
H   -0.39384062   2.55401702  -2.64993934
H   -1.16366033   2.78154011  -1.36638721
O    1.29024266   1.31673918   0.86089347
H    1.61011573   2.21777833   0.90607663
H    1.05881911   1.09867668   1.76373550
O    1.66292551  -1.63048883  -0.33596515
H    2.49776800  -1.39008208   0.06587370
H    1.49789956  -2.52267731  -0.03100942
O   -1.58256712  -0.47158432   0.58097808
H   -1.28793072  -0.48216199   1.49164232
H   -2.46233945  -0.84767905   0.60900048
Na   0.15686402   0.11553351  -0.87024469
