19
Energy:   -436.25710123
O    0.14068245  -0.26964716  -4.08997424
H   -0.41342217  -0.78246650  -4.67837568
H    0.70699044   0.23564181  -4.67324963
O   -0.27808436   0.40710856   3.96545825
H   -0.80565349   1.06806438   4.41383316
H    0.05637085  -0.15018180   4.66816659
O   -0.85241050   1.04592656  -1.84881744
H   -0.61009353   0.65153412  -2.68665330
H   -1.36075843   1.82132513  -2.08666464
O    0.95456764   1.26558453   1.60143897
H    1.59401164   1.96841226   1.71709540
H    0.65775830   1.06279523   2.48857625
O    1.28904697  -1.59299126  -1.39557033
H    1.39302006  -1.44805701  -2.33600401
H    1.85066927  -2.34432096  -1.20500298
O   -1.28440515  -0.87154820   1.72258496
H   -1.04238989  -0.47054423   2.55736414
H   -1.99027280  -1.47901947   1.94385711
Na   0.01250265  -0.12308356  -0.06041118
