19
Energy:   -423.21189685
O    1.20234211  -1.41211459  -1.18802787
H    1.07232624  -2.26662856  -1.59928643
H    2.13415601  -1.38991556  -0.97017033
O    3.79802316  -0.28389289   0.28078992
H    4.50933077   0.19445004  -0.14519293
H    4.23524541  -0.98849249   0.75891957
O   -3.60319167  -0.79859398   2.27524895
H   -3.99608906  -0.19891822   2.90948272
H   -3.94466052  -1.65984118   2.51584019
O   -0.49735167   1.82992780  -2.37172692
H   -0.29697096   1.52802787  -3.25769298
H   -0.68268050   2.76359109  -2.47251345
O   -2.51253633  -0.05283391  -0.12798080
H   -2.83363413  -0.35522743   0.72154036
H   -3.29394217  -0.01239401  -0.67934399
O    1.36941552   0.90634799   1.06163862
H    2.21263177   0.53321511   0.80475332
H    1.50603030   1.21376333   1.95777703
Na  -0.27702643   0.39075596  -0.49158647
