19
Energy:   -428.26086590
O   -0.37372319   2.14546034  -3.05869168
H   -0.88005191   2.95530733  -3.12202361
H    0.23020959   2.18138778  -3.80045058
O   -1.53800698   1.03565868   1.50887404
H   -1.60031336   1.50117418   2.34292744
H   -2.28516647   1.35204525   1.00105115
O   -0.91786684  -0.01506155  -1.48456118
H   -0.72095374   0.74606983  -2.03057958
H   -1.56771790  -0.50806242  -1.98543600
O    1.63304485   0.38079912   2.23738156
H    2.18781635   1.16062863   2.25544729
H    1.82335978  -0.06824341   3.06101551
O    1.88442079  -1.35056503  -0.58295809
H    1.84422171  -1.52709185  -1.52288051
H    2.78641191  -1.55740195  -0.33829023
O   -0.71325629  -2.34401887   1.50692642
H   -1.49442589  -2.45834279   2.04816198
H   -0.38429653  -3.23237170   1.36964355
Na   0.11297872  -0.35724524   0.59232873
