19
Energy:   -428.27329595
O   -1.55807905   1.55613794   0.58421212
H   -1.76969241   2.40865097   0.20385284
H   -2.12988781   1.48579444   1.34861933
O    1.27019052   1.48910480  -1.23413341
H    2.06564331   1.43544303  -1.76385703
H    1.07460582   2.42502168  -1.18898835
O   -0.52729382  -1.90812054  -1.33012707
H   -0.92417931  -2.15545377  -2.16531569
H   -0.44128102  -2.73273619  -0.85175205
O    0.57523087  -1.36459741   1.80732251
H    1.13442645  -1.37448069   2.58413296
H    0.32439419  -2.27960394   1.68053191
O    0.66247293   4.17445828  -1.11121924
H    0.35729103   4.78008080  -1.78673180
H    1.03013454   4.73892470  -0.43119390
O   -0.33605304  -3.87051621   1.11997376
H   -1.09093520  -4.17058109   1.62627982
H    0.21546925  -4.64744379   1.02811214
Na   0.02292764  -0.03591433  -0.03404393
