19
Energy:   -424.27266855
O   -0.64609866   2.15126409  -0.07234564
H   -1.57961694   2.30265500   0.07549300
H   -0.25868127   3.02654977  -0.07616627
O    0.50266022  -0.82307456   2.27575400
H    1.25504146  -0.86170234   2.86623025
H   -0.22866437  -1.15445514   2.79689037
O    1.84796553  -0.50910640  -1.39862955
H    1.96249402  -0.59894691  -2.34469707
H    2.69394338  -0.76245318  -1.02934817
O   -3.79546571   1.25505243  -0.23913968
H   -4.21808033   1.66636751  -0.99309501
H   -4.47928852   1.22002100   0.42973326
O    4.18671045  -1.26964971  -0.26335617
H    4.83086527  -0.77926792   0.24735129
H    4.63754141  -2.07875164  -0.50488747
O   -1.95504284  -0.86570968  -0.44223176
H   -2.64794084  -0.20533794  -0.43645427
H   -2.33831800  -1.61168474  -0.90359194
Na   0.17273146  -0.07708572   0.10029320
