19
Energy:   -434.25171712
O   -0.58274452   0.56416768  -2.31564414
H   -0.60915167   1.51837391  -2.38653118
H   -0.79968644   0.25215850  -3.19417606
O   -0.28362825  -3.03871163   2.91907374
H    0.07584108  -2.79522907   3.77214460
H   -0.53487808  -3.95705942   3.01777893
O   -0.43416523   3.35327577  -2.02302627
H   -1.22223308   3.85786416  -1.82160266
H    0.03912030   3.89073010  -2.65814476
O    0.76757307   2.02970578   0.13998971
H    1.24886947   2.58372950   0.75451664
H    0.45104722   2.63442437  -0.53109796
O    1.86835438  -1.70993782   0.15725603
H    1.76857301  -2.41986880   0.79150639
H    2.73428776  -1.85025675  -0.22576071
O   -1.33402254  -1.33283977   1.05300854
H   -1.02812340  -1.92008907   1.74423630
H   -2.28616899  -1.43090192   1.05873471
Na   0.18092126  -0.17617026  -0.24184198
