19
Energy:   -434.93406959
O   -1.67351017   0.02998790   1.89382902
H   -2.39371376   0.66044020   1.90210812
H   -1.67154450  -0.34370561   2.77506743
O    2.16450537   0.43964329   0.56678401
H    2.77453147   1.10786501   0.87916157
H    2.72225158  -0.29847277   0.32115076
O    3.53929445  -1.74717816  -0.48065424
H    4.05184983  -2.37141425   0.03300725
H    4.09387505  -1.54354569  -1.23378505
O   -1.31897881   1.20703246  -1.33703687
H   -1.38344253   1.47235714  -2.25446757
H   -2.11758538   1.54590279  -0.93252940
O    0.77630384  -2.02519982  -0.68004706
H    1.73122782  -2.05760352  -0.73751036
H    0.48985334  -2.89748376  -0.95078437
O   -3.56335200   2.08585045   0.04222633
H   -3.70474999   3.01980758   0.19702472
H   -4.43564014   1.73879062  -0.14457499
Na  -0.04491545  -0.01995181   0.15594219
