19
Energy:   -427.98011983
O    1.73817272  -0.50927663  -2.54906927
H    2.68566938  -0.38946740  -2.61331626
H    1.47461505  -0.80887520  -3.41913243
O   -2.45510478   0.44908509   2.69929342
H   -2.60184867  -0.15129577   3.43021127
H   -2.81254851   1.28470630   2.99963161
O   -0.04421615   2.04396303  -1.38886919
H   -0.84803095   2.50879178  -1.15638724
H    0.35964538   2.58679988  -2.06596288
O    2.00425015   0.58329270   0.96413315
H    2.25130406   1.48242264   1.18037740
H    2.46206239   0.04644031   1.61099427
O    0.60732875  -2.39510005  -0.05772001
H    1.19253595  -3.08774442  -0.36432750
H   -0.06096489  -2.85355283   0.45162908
O   -1.77534151  -0.21794600   0.14213473
H   -1.99524969   0.01987508   1.04286409
H   -2.61277381  -0.45951647  -0.25357060
Na   0.43935148  -0.12125353  -0.61940147
