25
Energy:  -1301.70048247
O    0.55250540   1.53339153  -0.76699534
H    0.93108492   1.98278027  -1.52261373
H    0.21855863   2.23770162  -0.21142473
O    0.20439491  -1.18637570  -1.94495943
H    0.85303360  -1.82065407  -2.25023087
H   -0.39083803  -1.07606038  -2.68641753
O   -1.65806350  -0.62193129   0.17747101
H   -2.24134068  -1.35561977  -0.01674740
H   -2.23002710   0.04559645   0.55627992
O   -0.62585525   2.70688035   1.42196710
H   -0.47955081   3.57120351   1.80637877
H   -1.57374542   2.58153850   1.46697263
O    2.37033964  -2.88222026  -2.14271099
H    3.07980380  -2.71331182  -2.76268067
H    2.27782600  -3.83492540  -2.13761283
O   -3.13747619   1.43837441   1.23588403
H   -3.58441283   1.30465641   2.07170638
H   -3.78802108   1.87028499   0.68228089
O    0.49274203   0.25041867   1.88310663
H    0.72315391  -0.10137542   2.74298054
H    0.19868726   1.14393061   2.06030723
O    2.10589912  -1.36758738   0.14347405
H    2.40725983  -1.97790566  -0.52952310
H    2.81840672  -1.34372458   0.78221917
Ca   0.34896969  -0.35486870  -0.07113652
