25
Energy:  -1301.77196033
O   -1.80011266  -0.89814756   2.42708004
H   -2.72834456  -0.76753692   2.62087957
H   -1.52746033  -1.59861109   3.01973796
O    0.29860773  -3.53876634  -0.33835821
H    0.85510631  -4.00074368  -0.96534953
H   -0.17844460  -4.23306682   0.11617425
O    1.71868959   1.01527548  -0.74251952
H    2.63982802   0.75714964  -0.77578938
H    1.65478538   1.75502665  -1.34660255
O   -1.07497366   1.71544197  -0.86043090
H   -0.64136472   2.33293262  -1.44943042
H   -1.98172988   2.01931688  -0.81938151
O   -0.92269269  -1.13839543  -1.02839872
H   -1.61210792  -1.12908724  -1.69236547
H   -0.68669340  -2.06186444  -0.94041475
O   -0.19922738   1.20676328   1.89912187
H    0.02745951   1.96356567   2.43958005
H   -0.78948373   0.68902690   2.44664204
O    0.89611183   3.13942582  -2.24946436
H    1.04588151   3.12332763  -3.19473773
H    1.12352033   4.03099404  -1.98560204
O    1.10197969  -1.26278824   0.96242772
H    0.99731432  -2.16536782   0.66138433
H    1.75269226  -1.31717546   1.66231844
Ca   0.02326086   0.26271412   0.10780470
