25
Energy:  -1322.41617265
O   -1.13614111  -0.41522945  -3.48659304
H   -1.93129478  -0.80942340  -3.84516467
H   -0.61462711  -0.18501497  -4.25552496
O    2.50329552   2.34597455   1.42661022
H    3.24066146   2.17478982   2.01245927
H    2.67784258   3.21662677   1.06921704
O   -0.02661635  -1.74346456  -1.23164151
H   -0.38852313  -1.45175428  -2.06839741
H    0.28504977  -2.63236434  -1.40179810
O   -2.19693174  -1.01411589   0.74053737
H   -2.36008593  -1.46016021   1.57159514
H   -2.98847581  -1.16962297   0.22526328
O   -0.14848266   1.24236584   1.65706365
H    0.65398397   1.71442398   1.87941533
H   -0.83390870   1.68529129   2.15730364
O    1.82994024   0.06849197   0.02546896
H    2.54383251  -0.46412878  -0.32510888
H    2.26626552   0.81809122   0.43038013
O   -1.13410558   0.91773322  -1.15967096
H   -1.25376073   0.64748686  -2.07010019
H   -1.62733890   1.73466691  -1.08502451
O    0.11107803  -1.47961573   2.17888754
H    0.62488476  -1.02796519   2.84839951
H    0.20668547  -2.40854953   2.38906145
Ca  -0.22010561  -0.29555804   0.26518535
