25
Energy:  -1301.10044452
O   -0.71792323   2.15135074   0.65743591
H   -1.47462309   1.90392159   1.18886417
H   -0.96637266   2.98593976   0.25998668
O    2.15883949   0.33484765  -0.84574245
H    3.08962697   0.55695820  -0.82264637
H    2.05624684  -0.18668524  -1.64180152
O    1.92153054   1.66829681   1.63953644
H    2.03284358   2.61357745   1.74095526
H    2.52152037   1.28592864   2.27987903
O   -0.52664320  -0.31242471  -0.99193998
H   -0.18402318  -0.51251740  -1.86303486
H   -1.42231545  -0.64988686  -1.00300166
O    1.08435915  -1.14134895   1.54012336
H    1.82831563  -1.72772602   1.67768260
H    0.36945345  -1.54026398   2.03611580
O   -1.53132779  -0.30108967   1.74404701
H   -2.18597693  -0.65029273   1.13929617
H   -1.89146087  -0.47439356   2.61381812
O   -3.10840837  -1.04351777  -0.39719611
H   -3.86419797  -0.48002679  -0.56300277
H   -3.41487923  -1.92493964  -0.61027578
O    1.10583855  -0.95370784  -3.09002040
H    1.10159765  -0.45318105  -3.90591672
H    1.30294217  -1.85071014  -3.35977749
Ca   0.56864566   0.54387438   0.49259242
