25
Energy:  -1307.96345047
O    0.22012164  -0.73682686   2.72414056
H    0.69469748  -1.47826033   3.10002089
H   -0.21576458  -0.32716319   3.47140941
O   -1.55196835   0.97590854   1.35534540
H   -1.81779263   1.78980100   1.78330375
H   -2.36377134   0.47731213   1.26255869
O   -2.51457605   2.33910605  -2.22882220
H   -3.36960036   2.00945269  -2.50539759
H   -2.53697561   3.27218948  -2.44115550
O   -0.96206535  -1.62811616   0.24098147
H   -1.01929179  -2.55162942   0.48609417
H   -1.44533731  -1.56814646  -0.58308387
O    1.98849267  -0.96932248   0.40228964
H    2.02962184  -1.54341989  -0.36253217
H    2.79097557  -1.15917342   0.88830369
O    1.24715901   1.81777905   1.02477855
H    1.62459983   2.18830814   1.82257456
H    1.51785775   2.41798813   0.33001017
O   -0.10014883   0.58932593  -1.25852695
H    0.35424154   0.32743490  -2.05926057
H   -0.71593693   1.26506680  -1.54209554
O    1.82694462  -2.26094259  -1.99468663
H    1.49646950  -3.15444140  -2.08784202
H    2.54900056  -2.20564920  -2.62063367
Ca   0.21316705   0.04976466   0.73010195
