25
Energy:  -1311.55638530
O   -0.09805328  -2.11643255  -0.03433971
H    0.24207400  -2.99953505  -0.17812869
H   -1.04332837  -2.19997567  -0.15966885
O   -0.99642765   3.13466885  -0.35969992
H   -1.46232612   3.40709719  -1.15023978
H   -1.14021083   3.84848634   0.26160744
O   -2.99109413  -1.75697111   0.01317112
H   -3.43788715  -1.87077980   0.85201284
H   -3.46273069  -2.33157000  -0.58984374
O   -1.23381257   0.36817752  -0.24553016
H   -1.52160842   1.27232248  -0.37173352
H   -2.02764668  -0.10333675   0.00692488
O    1.23157107   1.77651552  -0.13472553
H    0.52087968   2.41718759  -0.16097240
H    2.02975941   2.30066950  -0.20098131
O    0.71166842  -0.31673340   2.32330251
H    0.56813952  -1.04986971   2.92175256
H    0.88046485   0.43124398   2.89625055
O    1.14352626  -0.49242255  -2.12222692
H    1.84238800  -0.18140550  -2.69763330
H    0.44982015  -0.77489177  -2.71822593
O    2.67452196  -0.69826357   0.44846389
H    3.47233435  -1.13187435   0.14562905
H    2.74962293  -0.69675838   1.40271199
Ca   0.74116115  -0.20320539  -0.09807496
