25
Energy:  -1358.26980375
O   -2.33881255   0.51765072  -2.66105195
H   -2.29641420  -0.03451405  -3.44178769
H   -3.01579135   1.16419155  -2.86084311
O    1.70810716   0.71981205   1.06015566
H    2.08024493   1.43248976   1.57961288
H    2.46792107   0.22949344   0.74630486
O   -0.07052335   1.20711645  -1.23276533
H   -0.73481462   1.11409019  -1.91562334
H    0.55775531   1.83309367  -1.59283519
O   -2.06790575  -0.52014866  -0.11362785
H   -2.37623069  -0.28037596  -0.98751378
H   -2.77786561  -1.04535530   0.25562386
O    0.67879844  -1.54468137  -0.36743925
H    0.34902176  -2.33632038  -0.79262963
H    1.63080151  -1.61131915  -0.44147570
O    3.40202423  -1.10767649  -0.13597169
H    3.95500612  -1.68540333   0.39002695
H    3.94360958  -0.87959124  -0.89154716
O   -0.41445184  -0.96880712   2.28668242
H    0.17416432  -1.66095974   2.58782628
H   -1.09378041  -0.92194372   2.95939957
O   -1.01771683   1.76359369   1.48096183
H   -1.56238587   2.43145178   1.06438884
H   -0.94002892   2.05052137   2.39083487
Ca  -0.19733750   0.10951031   0.51913692
