25
Energy:  -1305.65049802
O    1.62011864   0.25741049  -1.41884972
H    1.71433967  -0.63800823  -1.74377980
H    2.43450685   0.69172270  -1.67257516
O    1.01222555   2.67108854   0.21805261
H    1.64853705   2.46980689   0.90421965
H    1.23088685   3.56101290  -0.05845004
O   -2.85267772  -1.43353646   1.53111799
H   -3.65869072  -1.86435462   1.24656463
H   -2.88807900  -1.46553634   2.48712772
O   -1.07936101   1.28144854  -1.78696790
H   -1.97757747   1.59040698  -1.90522073
H   -0.61887508   1.57591454  -2.57276324
O    1.43298815  -2.47719332  -1.77596124
H    1.05141534  -2.86064965  -2.56564173
H    2.16261839  -3.05652364  -1.55630711
O   -1.45413072   0.99043636   1.23472365
H   -2.04975702   0.26880030   1.43647235
H   -1.60643081   1.62917692   1.93117683
O    1.54564139   0.42019576   1.76233124
H    2.22307322  -0.25595985   1.77380156
H    1.46011247   0.68975649   2.67680030
O   -0.33892649  -1.26868503   0.03265149
H    0.11325038  -2.02361984  -0.34396684
H   -1.12433530  -1.63677909   0.43746206
Ca   0.06931083   0.72504731  -0.18186001
