25
Energy:  -1339.44704413
O   -0.28792741   3.34268386  -1.31744019
H   -0.78233788   4.08097819  -0.96147445
H    0.16833877   3.70358208  -2.07757538
O   -0.41960448  -2.74343448   0.61711317
H    0.03593477  -3.50353598   0.25522708
H   -1.30525827  -3.05819483   0.79815222
O    0.07315938  -0.78949749  -1.50902846
H    0.36340742  -1.22758343  -2.30907135
H   -0.58519537  -0.16083906  -1.80498364
O   -1.89965879   1.13549179  -1.61289738
H   -1.49976252   2.00065241  -1.70128246
H   -2.57100806   1.11062930  -2.29473597
O    2.27171005  -1.64743084   0.31199257
H    2.86843567  -1.43532256  -0.40575423
H    2.78301996  -2.21404824   0.88969383
O   -1.49955761  -0.00850571   0.79603176
H   -1.88340360   0.45996870   0.05479911
H   -2.07390052   0.19747702   1.53355002
O    0.63696052  -0.87426001   2.60663572
H    0.49171320  -1.61680992   3.19294169
H    0.84387696  -0.14444127   3.19040113
O    1.17025820   1.10376349   0.43400013
H    1.95305842   1.52105539   0.79361538
H    0.79196510   1.76367290  -0.14707280
Ca   0.37339200  -0.82716265   0.55151227
