25
Energy:  -1308.65663007
O    1.90323875  -0.17683150  -1.24082015
H    1.60274647  -0.95267329  -1.71411261
H    2.78056773  -0.01029030  -1.58547903
O    0.73767863  -2.32686581  -2.54958064
H    0.46173620  -2.15902216  -3.45064453
H    0.92328225  -3.26561136  -2.52634436
O    1.52041831   2.26556430   0.62037602
H    1.09213832   2.94429402   0.09871131
H    2.29540994   2.69475735   0.98288555
O   -0.81902686   2.24290814  -0.78710677
H   -0.93549416   2.53561238  -1.69098256
H   -1.49070929   2.71388343  -0.29389602
O   -3.02881407  -0.93047763   1.27786928
H   -3.90387638  -0.65558421   1.00413325
H   -3.18493869  -1.59117186   1.95265819
O   -0.88622815   0.69862805   1.75934114
H   -0.83989277   1.04256410   2.65141338
H   -1.72692620   0.24254169   1.72134292
O   -0.75601727  -1.01393765  -0.52467754
H   -1.67576671  -1.13371909  -0.28815014
H   -0.59938541  -1.65957670  -1.21377008
O    1.67818995  -0.52691747   1.60740174
H    1.84616171  -0.30226727   2.52257911
H    2.34229840  -1.18289084   1.39552732
Ca   0.53286614   0.42904954   0.20577730
