25
Energy:  -1308.08826921
O   -3.01956324  -1.04068633   0.18165896
H   -3.76812509  -0.46090799   0.04114536
H   -3.40640881  -1.90883422   0.29524412
O   -1.30867244   1.49784777  -0.36601243
H   -0.79369185   2.30264852  -0.30837057
H   -2.19041252   1.79291447  -0.59339301
O    0.75019638   3.41817747  -0.07670147
H    1.03491216   3.95886265  -0.81347031
H    0.72451753   4.02024514   0.66699670
O    0.67591795  -2.07917506   0.15647469
H    0.49632760  -3.01864068   0.19367024
H    1.62988167  -2.01520798   0.20222712
O    3.36014032  -1.24440643   0.09790251
H    3.91264472  -1.60207996  -0.59710856
H    3.93421267  -1.20136847   0.86263810
O   -1.04126253  -1.00165296  -1.91162069
H   -0.61723074  -1.07179137  -2.76690396
H   -1.94267776  -1.28378957  -2.06680243
O    1.35498785   0.64793968  -0.00666951
H    2.22459559   0.26403146  -0.11904703
H    1.51171291   1.59164508   0.02633373
O   -0.88538651  -0.33534601   1.95171509
H   -1.78020641  -0.57936702   2.18832227
H   -0.42169119  -0.28391635   2.78752218
Ca  -0.42036792  -0.32956745  -0.04552282
