25
Energy:  -1350.52361347
O   -0.15546987  -2.94702078   1.38219616
H    0.52461319  -3.49020414   1.78053109
H   -0.97393426  -3.39986809   1.58536408
O   -0.12656240  -0.14018909   1.37172456
H   -0.87231493   0.28790522   1.79222459
H   -0.11808854  -1.02369785   1.73992601
O    2.44160179  -0.28406799  -0.15446905
H    2.84463198  -1.13828316  -0.30975899
H    3.12641437   0.23024110   0.27302333
O    0.97814193   2.21779802   0.06123876
H    1.11706275   2.99079810  -0.48593922
H    1.08908069   2.53510019   0.95747744
O    1.03432254   0.75359822  -2.49733596
H    1.90454985   0.61854923  -2.87243334
H    0.52511838   1.14488306  -3.20715225
O   -1.46128530   0.89580958  -0.95430076
H   -2.07950911   0.89319974  -1.68507046
H   -1.98448958   1.16211705  -0.19827862
O    0.07797780  -1.67290405  -1.06603334
H   -0.05266069  -2.30476886  -0.35898858
H   -0.07026490  -2.17523149  -1.86723437
O   -2.48755650   1.35880912   1.57269031
H   -3.29340428   0.90331215   1.81633700
H   -2.57490027   2.22752296   1.96504116
Ca   0.47654906   0.29023722  -0.54769513
