25
Energy:  -1304.08996128
O    2.33715076   0.42475400   1.30185984
H    2.85638305  -0.10366654   1.90799631
H    2.83203212   1.23877263   1.20859705
O   -2.67819529   1.96803563   0.96415344
H   -3.06396105   2.59745336   0.35485060
H   -3.27742383   1.95832106   1.71051972
O   -0.18471678   1.52510636   1.48869830
H   -1.06493347   1.87665628   1.35504542
H    0.12577706   1.95254898   2.28689516
O    0.22835276   0.83051737  -1.43136765
H   -0.20410772   1.58804235  -1.82553220
H    0.39631247   0.24073191  -2.16633329
O    0.10055596  -1.50983509   1.81259411
H    0.47564237  -2.32566850   2.14419307
H   -0.84145263  -1.67588892   1.77684791
O   -1.76594992  -0.53547661   0.04427951
H   -2.39233728  -1.11083625  -0.39484690
H   -2.29220607   0.20325483   0.35015887
O    1.61853115  -1.44743586  -0.66930919
H    2.44277992  -1.91246453  -0.52580255
H    1.42789520  -1.57800408  -1.59820193
O    0.80114984  -1.22467906  -3.18764362
H    1.23039575  -0.99282875  -4.01118792
H    0.21520933  -1.94594507  -3.41716687
Ca   0.48237473  -0.06586030   0.38823968
