25
Energy:  -1302.57686565
O   -0.41851282  -0.19408248   1.26157613
H   -0.10112640   0.22194779   2.06308503
H   -1.20058815  -0.67414531   1.53384385
O   -1.33016479  -1.03923315  -1.31318135
H   -1.63166920  -1.35425578  -2.16528914
H   -2.02885279  -1.28330634  -0.70614330
O   -2.70158513  -1.74341574   0.96484914
H   -2.88113029  -2.68285666   1.00287731
H   -3.50332390  -1.33256908   1.28834845
O    1.97335218   0.82529925   0.23236074
H    1.92763941   1.04376074   1.16317585
H    2.79127088   1.22203554  -0.06737443
O   -0.84416000   2.35365123  -1.33185827
H   -0.51182278   3.25125127  -1.34175739
H   -1.77390874   2.43964541  -1.54258117
O    1.32195665   1.16803816   2.92979554
H    1.17405196   2.04169189   3.29185246
H    1.89598992   0.73924753   3.56450512
O    0.93638057   0.55268795  -2.45388463
H    1.32075687   0.39158460  -3.31558784
H    0.42672329   1.35530953  -2.56469941
O    1.36500768  -2.01498387  -0.61514509
H    0.98391846  -2.87385692  -0.79773740
H    2.27274499  -2.20128720  -0.37527868
Ca   0.41961125  -0.18262475  -0.59560753
