12
Energy:    -19.09687219
C   -0.25709316   1.95844559   1.35282425
H   -1.32306615   2.03888243   1.39899457
H    0.07220050   2.15157885   0.35324218
H    0.18354059   2.67175983   2.01759773
C    0.16899190   0.53806736   1.76824835
N    0.48623160  -0.51946881   2.07755046
C    0.37010966  -1.92946602  -1.45290236
H   -0.11463917  -2.67053606  -2.05351367
H    0.37330420  -2.24516635  -0.43054127
H    1.37756571  -1.80064050  -1.78955557
C   -0.38679710  -0.59391674  -1.57537800
N   -0.95034858   0.40046041  -1.66656668
