12
Energy:    -19.09329407
C    0.76329862   1.10878927   2.14061666
H    1.50378352   0.93336661   1.38841377
H    0.93887755   0.45896588   2.97236223
H    0.81897698   2.12679360   2.46537225
C   -0.63528620   0.83136094   1.55872833
N   -1.67659617   0.62480293   1.12548603
C   -0.71599034  -1.09105253  -2.23428904
H   -1.58663022  -0.99422321  -1.61987024
H   -0.68713073  -2.07234787  -2.65987766
H   -0.74973530  -0.36327132  -3.01793110
C    0.54411375  -0.86554314  -1.37820307
N    1.48231853  -0.69764115  -0.74080815
