12
Energy:    -20.36371698
C    1.45598002   1.97136407   0.41539085
H    1.32259639   3.01483608   0.61103121
H    1.32795761   1.78536053  -0.63051165
H    2.44055155   1.67581246   0.71232051
C    0.41516044   1.16262241   1.21177740
N   -0.35977705   0.56047749   1.80472338
C   -1.45598028  -1.97136466  -0.41539178
H   -2.44055185  -1.67583016  -0.71234020
H   -1.32797465  -1.78534446   0.63050981
H   -1.32258036  -3.01483739  -0.61101438
C   -0.41515994  -1.16262129  -1.21177560
N    0.35977812  -0.56047509  -1.80471955
