12
Energy:    -19.88301190
C   -1.36223735  -0.01428857  -2.07378073
H   -1.60113995  -1.05721136  -2.08551882
H   -0.36263158   0.12665130  -2.42849661
H   -2.04334753   0.51478879  -2.70707778
C   -1.47679194   0.52241763  -0.63488403
N   -1.56208305   0.92201979   0.43643996
C    1.35820900  -0.01735069   2.08411798
H    2.05316691   0.77256327   2.27897594
H    1.57078923  -0.84603826   2.72675758
H    0.36288493   0.32997965   2.26739568
C    1.48455536  -0.46144250   0.61496209
N    1.57862596  -0.79208905  -0.47889126
