12
Energy:    -19.61716178
C   -0.27419041  -2.33697001   0.52124473
H   -0.22660856  -2.27399739  -0.54584036
H   -1.28858390  -2.21903646   0.84061384
H    0.09108352  -3.29122070   0.83886034
C    0.59157577  -1.22393002   1.14026888
N    1.23617805  -0.39522115   1.60116050
C    0.15304350   2.39727224  -0.50421945
H    0.96225755   2.16071478   0.15465336
H   -0.64077452   2.84856002   0.05353622
H    0.49279313   3.07853087  -1.25612102
C   -0.35810167   1.10771565  -1.17307999
N   -0.73867248   0.14758216  -1.67107706
