12
Energy:    -19.39054342
C    1.06096984   0.55137429   2.32717043
H    0.43782427   1.40184058   2.14469613
H    1.93711767   0.85870400   2.85897164
H    0.52301888  -0.16634409   2.91059840
C    1.47108368  -0.08200965   0.98469830
N    1.77643208  -0.55359278  -0.01483322
C   -1.09373585  -0.60783879  -2.30537573
H   -1.86516028  -1.33003786  -2.47340264
H   -0.15502609  -1.10859295  -2.19149704
H   -1.04271295   0.06019767  -3.13965568
C   -1.40793708   0.19082795  -1.02670101
N   -1.64187417   0.78547164  -0.07466957
