12
Energy:    -19.54761448
C    1.04729349  -1.51421838  -1.79261770
H    2.10057732  -1.34235735  -1.86980017
H    0.71842778  -2.09491611  -2.62900074
H    0.83769908  -2.04335624  -0.88653691
C    0.30633087  -0.16423381  -1.78184529
N   -0.24534947   0.84089107  -1.77382473
C   -1.03311568   1.52045557   1.82355383
H   -1.64727882   1.54306050   2.69944927
H   -1.64168580   1.67495078   0.95714011
H   -0.29637089   2.29401536   1.88447560
C   -0.33365433   0.15221351   1.72222524
N    0.18712644  -0.86650489   1.64678150
