12
Energy:    -20.04705787
C   -0.20779244   2.44295187  -0.22499062
H    0.86056844   2.49388069  -0.19480024
H   -0.61809556   3.39068496   0.05492442
H   -0.52520247   2.19568781  -1.21645945
C   -0.69807141   1.36149874   0.75566511
N   -1.06310639   0.55630772   1.48580787
C    0.27036565  -2.42340049   0.26858461
H    1.09202005  -2.46582411   0.95267851
H    0.12042741  -3.38823837  -0.16902877
H   -0.61473507  -2.12777267   0.79213022
C    0.57748044  -1.39917813  -0.83967937
N    0.80614136  -0.63659802  -1.66483228
