12
Energy:    -19.66164333
C   -0.28001197  -1.04822018   2.08533417
H   -1.22216157  -1.21069292   2.56580989
H   -0.05203708  -0.00280760   2.09158497
H    0.48444065  -1.58311275   2.60916737
C   -0.35237470  -1.54914897   0.63088101
N   -0.40625204  -1.92211322  -0.45202547
C    0.32069860   1.02619524  -2.07755801
H    1.20194255   0.43128019  -2.19749700
H    0.33715335   1.83358368  -2.77952115
H   -0.54452836   0.42087965  -2.25040021
C    0.27396349   1.59159539  -0.64586722
N    0.23916708   2.01256150   0.42009164
