12
Energy:    -19.76511766
C   -0.19856341  -1.01491413   2.27669210
H   -1.01054201  -1.37086372   1.67761713
H   -0.54305217  -0.22557473   2.91164870
H    0.17987006  -1.81592982   2.87674299
C    0.92122580  -0.48580675   1.36142301
N    1.75495976  -0.09186225   0.67996358
C    0.17941688   1.05953581  -2.27049001
H    0.63978454   1.86816935  -1.74221584
H   -0.28516124   1.43267557  -3.15921549
H    0.92272046   0.33614125  -2.53335724
C   -0.88432663   0.39981192  -1.37337567
N   -1.67633202  -0.09138250  -0.70543327
