12
Energy:    -19.52563882
C    1.85059563  -1.13434950  -0.84437014
H    1.62749292  -1.50471123   0.13438292
H    2.52189780  -0.30470080  -0.76732791
H    2.30681446  -1.90969202  -1.42368651
C    0.54890705  -0.67946499  -1.53014483
N   -0.42025927  -0.34078280  -2.04073526
C   -1.80202689   1.22067575   0.83077556
H   -1.48753676   2.19569983   0.52202942
H   -2.63707332   1.30861897   1.49399689
H   -2.08710839   0.64933680  -0.02782763
C   -0.64250864   0.51309719   1.55634430
N    0.22080540  -0.01372722   2.09656321
