12
Energy:    -19.55267865
C   -2.55308721  -0.25195415  -0.43399421
H   -3.31667854  -0.16009640  -1.17789650
H   -2.45991406   0.67203453   0.09747806
H   -2.81371618  -1.03224385   0.25019847
C   -1.21307295  -0.59098035  -1.11298096
N   -0.21537142  -0.84340076  -1.61851746
C    2.54881992   0.29351884   0.40983964
H    3.28436303  -0.08395767   1.08909511
H    2.88440041   1.22393535   0.00166084
H    2.40006449  -0.41044242  -0.38212593
C    1.22129688   0.51087694   1.15953160
N    0.23289563   0.67270993   1.71771134
