12
Energy:    -19.12810948
C   -2.23520707  -0.12929803  -1.40232284
H   -1.78297609  -1.09219369  -1.51729794
H   -2.70772863   0.15462176  -2.31938992
H   -2.96618782  -0.16944716  -0.62196762
C   -1.15393601   0.90570625  -1.04008113
N   -0.34888057   1.67631398  -0.77037571
C    2.22834107   0.13743151   1.39907800
H    3.19014560  -0.19894677   1.07245608
H    2.24384572   0.28775121   2.45835260
H    1.98833897   1.05915721   0.91151280
C    1.16716815  -0.92138109   1.04633459
N    0.37707667  -1.70971520   0.78370109
