12
Energy:    -19.64058503
C   -0.54040743  -2.34871684   0.95119216
H   -0.40646181  -3.26096380   0.40827022
H   -1.41510685  -1.84635227   0.59421898
H   -0.65435018  -2.56683899   1.99250810
C    0.68971886  -1.44485816   0.74765156
N    1.60560380  -0.77189429   0.59610632
C    0.54797203   2.31138986  -1.02335550
H    1.34941610   1.63267890  -1.22814564
H    0.83211024   2.96951022  -0.22897388
H    0.33247136   2.88406828  -1.90113564
C   -0.70429733   1.51679467  -0.60857851
N   -1.63666879   0.92518244  -0.29975819
