12
Energy:    -19.79190038
C   -1.86355182   1.50217512   0.23889723
H   -2.43425468   0.65087652   0.54628807
H   -2.52663717   2.29382244  -0.04130170
H   -1.24276156   1.82639832   1.04784584
C   -0.98129147   1.12138867  -0.96452221
N   -0.32440853   0.83787585  -1.86052268
C    1.84377164  -1.53496405  -0.24123351
H    1.27095466  -1.40656830  -1.13582584
H    2.08932880  -2.56936355  -0.12032668
H    2.74379987  -0.96021930  -0.30844014
C    1.01941181  -1.05819789   0.96902469
N    0.40563845  -0.70322382   1.87011693
