12
Energy:    -19.20668044
C   -1.54788284  -1.91191595   0.44370192
H   -1.99453434  -2.84965579   0.18670656
H   -2.25204802  -1.31903802   0.98917992
H   -0.68178875  -2.08314706   1.04823481
C   -1.13809443  -1.16912649  -0.84157520
N   -0.83298833  -0.61608596  -1.79852244
C    1.63389753   1.92325478  -0.39886386
H    2.42520936   2.53106723  -0.01248348
H    0.90501256   2.54621220  -0.87378474
H    2.03113241   1.23163916  -1.11214597
C    0.97232707   1.14727432   0.75516337
N    0.47975778   0.56952160   1.61438910
