12
Energy:    -19.72946345
C    1.35193281  -1.41085158  -1.42602457
H    1.38040544  -0.44387719  -1.88324446
H    0.53548047  -1.97237574  -1.82975130
H    2.26969310  -1.92501726  -1.62159755
C    1.16514546  -1.25438231   0.09457658
N    1.02607379  -1.13788383   1.22673325
C   -1.27263442   1.44489180   1.42509404
H   -0.30465008   1.81151899   1.69618629
H   -1.46697426   0.53120724   1.94692893
H   -2.01478014   2.16989660   1.68679398
C   -1.31796919   1.18878006  -0.09278327
N   -1.35172298   0.99809323  -1.22291192
