12
Energy:    -19.75876786
C   -1.30256258  -0.71083755   1.94618092
H   -0.49052250  -0.16326703   2.37706097
H   -1.62627133  -1.46659803   2.63097128
H   -2.11378351  -0.04378043   1.74159721
C   -0.83784210  -1.37126442   0.63489482
N   -0.49183658  -1.86298224  -0.34141728
C    1.43102179   0.69754591  -1.86863260
H    2.42132706   0.53038006  -1.49951033
H    1.47504170   1.31653992  -2.74030211
H    0.98085026  -0.24018236  -2.11945202
C    0.59027573   1.39688005  -0.78434582
N   -0.03569792   1.91756611   0.02295497
