12
Energy:    -19.09649780
C    2.26694982  -0.58259179   0.95079240
H    2.33883509   0.22883781   1.64456088
H    3.22951810  -1.03358197   0.82844347
H    1.57683663  -1.31042681   1.32348405
C    1.77135624  -0.05381583  -0.40802435
N    1.40236429   0.33988190  -1.41972520
C   -2.26894340   0.72945270  -0.86099405
H   -2.78303266   1.55131430  -0.40805265
H   -2.93680852   0.20700216  -1.51360473
H   -1.43538394   1.09612716  -1.42280146
C   -1.76751423  -0.22921425   0.23496511
N   -1.39417743  -0.94298537   1.05095652
