12
Energy:    -19.16232020
C   -1.55820483   1.71531740   0.52198196
H   -0.84501798   2.19675932   1.15796810
H   -1.92261108   0.83035694   1.00047142
H   -2.37457704   2.38085315   0.33357373
C   -0.88522126   1.33820779  -0.81086517
N   -0.38415440   1.05743255  -1.80323043
C    1.53364406  -1.83660946  -0.48144343
H    1.79064823  -1.12346903  -1.23661214
H    0.81610318  -2.52731518  -0.87254417
H    2.41181996  -2.36774866  -0.17879295
C    0.93255474  -1.10445394   0.73273939
N    0.48501642  -0.55933088   1.63675370
