12
Energy:    -19.27370733
C   -1.41725919   0.93612145   1.81434224
H   -2.17425568   0.62460633   2.50341032
H   -1.84002949   1.02278591   0.83523365
H   -1.02590408   1.88422000   2.11905428
C   -0.28253372  -0.10481668   1.79322617
N    0.56232098  -0.87984244   1.77750430
C    1.33094924  -1.00775062  -1.86581302
H    0.70984358  -1.87713336  -1.92327240
H    1.99151168  -1.09602603  -1.02869666
H    1.90436447  -0.91902178  -2.76482429
C    0.44887011   0.24286028  -1.69403177
N   -0.20787790   1.17399694  -1.56613282
