12
Energy:    -20.17455847
C   -1.93120149  -0.70012418   1.35767397
H   -1.86544905   0.35804968   1.21329642
H   -1.86017584  -0.92272337   2.40185022
H   -2.86786690  -1.05404403   0.98045024
C   -0.77995963  -1.39334830   0.60555529
N    0.07719226  -1.90948516   0.04556874
C    1.97351699   0.69465078  -1.26902176
H    2.39842104   1.24772973  -2.08047749
H    1.72717671  -0.29243701  -1.60049311
H    2.68090304   0.63587284  -0.46836626
C    0.69840926   1.40389662  -0.77640567
N   -0.25096640   1.93196239  -0.40963060
