12
Energy:    -19.05148545
C    1.08241676   1.79882609   0.96977070
H    1.84170200   2.30619598   1.52741028
H    0.11882647   2.13299093   1.29338577
H    1.20249753   2.01183593  -0.07191375
C    1.20363697   0.28106750   1.20067013
N    1.29389092  -0.84897275   1.37258524
C   -1.25148070  -1.74823763  -0.84482979
H   -1.58524074  -1.61896388   0.16353161
H   -0.39435598  -2.38860921  -0.85750076
H   -2.03446821  -2.18879613  -1.42598197
C   -0.87781723  -0.37856149  -1.44145605
N   -0.59960780   0.64122465  -1.88567141
