12
Energy:    -19.17075922
C    0.61652726  -2.38956693   0.22910919
H    0.93279145  -3.28777385   0.71706562
H    1.28775339  -2.16414464  -0.57309987
H   -0.37138196  -2.52361055  -0.15943523
C    0.61713019  -1.22833529   1.24061338
N    0.61757909  -0.36374555   1.99372422
C   -0.51501053   2.45815844  -0.35120367
H   -1.36082715   3.10286365  -0.46888806
H    0.33862836   2.90039161  -0.82091590
H   -0.31594620   2.31755173   0.69067071
C   -0.81277307   1.09614584  -1.00531309
N   -1.03447082   0.08206554  -1.49232729
