12
Energy:    -19.58368950
C   -1.28175285  -0.71235652   1.90967120
H   -1.47396038  -0.51021652   2.94267452
H   -0.45806076  -1.39018492   1.82613024
H   -2.15054720  -1.15018892   1.46425200
C   -0.94020355   0.60243290   1.18422453
N   -0.68590457   1.58135338   0.64409651
C    1.20897971   0.73860251  -1.88283888
H    1.47649759   1.45603224  -1.13542403
H    0.27396643   1.01467964  -2.32378182
H    1.96577677   0.71199633  -2.63878161
C    1.08045184  -0.65301414  -1.23593573
N    0.98475699  -1.68913599  -0.75428693
