12
Energy:    -19.77164488
C    1.87234277   1.40782454  -1.08975345
H    2.54594813   0.67455367  -1.48150571
H    2.37331599   2.35064313  -1.01891536
H    1.02815212   1.50051599  -1.74063711
C    1.39683027   0.97282531   0.30891146
N    1.04278960   0.64894860   1.35028106
C   -1.83660153  -1.40467593   1.10139494
H   -2.13530657  -2.43213638   1.10209561
H   -2.64376228  -0.79834058   1.45600466
H   -0.98843210  -1.27938624   1.74155915
C   -1.46571073  -0.97889331  -0.33134690
N   -1.18956567  -0.66187880  -1.39808833
