12
Energy:    -19.84632254
C    2.13536682  -0.45667821  -1.24831093
H    2.95938659   0.22585198  -1.24166608
H    1.38425367  -0.10243552  -1.92302586
H    2.47354351  -1.42101796  -1.56546148
C    1.54371312  -0.56092795   0.16967281
N    1.10320005  -0.63854662   1.22542616
C   -2.05098994   0.49343420   1.27664772
H   -3.11306747   0.53834792   1.39860780
H   -1.60200838   1.34495074   1.74380318
H   -1.67736914  -0.40067379   1.73038498
C   -1.70632411   0.49009186  -0.22428342
N   -1.44970473   0.48760334  -1.34179488
