12
Energy:    -19.29562659
C   -2.30444239  -0.00940910  -0.74159974
H   -2.61402448  -1.03027645  -0.82459959
H   -1.61902970   0.22069960  -1.53037000
H   -3.15954408   0.62965474  -0.81438438
C   -1.61464910   0.20891842   0.61785541
N   -1.10106663   0.37147318   1.63003156
C    2.27298321  -0.18165310   0.74783803
H    2.64160533   0.71144534   1.20761308
H    3.07641124  -0.87770322   0.62570397
H    1.51622157  -0.61559440   1.36743939
C    1.67527717   0.15929632  -0.62987782
N    1.23025785   0.41314867  -1.65564990
