12
Energy:    -19.22948860
C    1.97803228  -0.50331045   1.23839481
H    2.35555041   0.46619206   0.98850457
H    2.05167391  -1.14542053   0.38565180
H    2.55145567  -0.91266990   2.04369571
C    0.50339586  -0.38533898   1.66633188
N   -0.59453799  -0.29750386   1.98495048
C   -1.98241481   0.40048383  -1.26354021
H   -2.09467772   0.37108754  -0.19985178
H   -2.33941069  -0.51578661  -1.68532395
H   -2.54665246   1.21898585  -1.65925400
C   -0.49494986   0.58350627  -1.61787171
N    0.61253541   0.71977479  -1.88168762
