12
Energy:    -20.07221271
C   -1.55246699  -0.59327378  -1.78485360
H   -1.05207781   0.30011892  -2.09527325
H   -2.55201137  -0.59328158  -2.16670451
H   -1.02677673  -1.44574634  -2.16146929
C   -1.59065768  -0.65215705  -0.24645371
N   -1.61909239  -0.69599832   0.89895494
C    1.58785268   0.54365289   1.78027909
H    1.35969644  -0.47531482   2.01383794
H    0.87759756   1.18647450   2.25695208
H    2.57169741   0.77796626   2.12962973
C    1.52246244   0.74778634   0.25526970
N    1.47377643   0.89977297  -0.88016911
