12
Energy:    -19.15255228
C    0.12490556   0.56003880  -2.26108359
H   -0.77350034   0.01977179  -2.04689077
H    0.43953825   0.34668532  -3.26127640
H   -0.05755382   1.60958696  -2.16080232
C    1.22770967   0.13412344  -1.27415948
N    2.04879746  -0.18298991  -0.53934963
C   -0.23537957  -0.72822344   2.25177172
H   -0.44260284  -0.44567417   3.26277350
H    0.81353800  -0.63352403   2.06281927
H   -0.53552652  -1.74345855   2.09650233
C   -1.01480434   0.19000171   1.29210532
N   -1.59512151   0.87366208   0.57759006
