12
Energy:    -19.26531716
C    1.03400409  -0.66190922   2.21462776
H    0.32583027  -1.40238271   1.90626265
H    0.93871556  -0.49364195   3.26700855
H    2.02444883  -1.00278476   1.99617373
C    0.76488873   0.65224827   1.45821055
N    0.56452011   1.63069826   0.89502355
C   -1.07756136   0.68173988  -2.15286573
H   -0.42798189   1.43511932  -1.75870064
H   -2.08817340   0.90411605  -1.88063191
H   -0.99209925   0.65939818  -3.21921284
C   -0.68094522  -0.69046588  -1.57723824
N   -0.38564647  -1.71213543  -1.14865742
