12
Energy:    -19.78777059
C    1.58952043   0.66374522   1.81932807
H    2.10776249   1.53611091   2.15889170
H    2.08439444  -0.21081032   2.18695752
H    0.58303465   0.68303431   2.18197582
C    1.57997777   0.63913506   0.27955430
N    1.57287282   0.62081168  -0.86687727
C   -1.52083899  -0.72478109  -1.81068228
H   -0.84894268  -1.54034625  -1.97893505
H   -1.11490369   0.16649515  -2.24166058
H   -2.46561457  -0.94172789  -2.26370797
C   -1.71234053  -0.52150685  -0.29621646
N   -1.85492214  -0.37015994   0.83137219
