12
Energy:    -19.32961150
C   -0.72387601   1.43194639   1.89656777
H   -1.21958067   2.34267593   1.63246783
H   -0.46523833   1.45469204   2.93458910
H   -1.37534646   0.60403009   1.70937822
C    0.55495598   1.28002023   1.05211102
N    1.50710452   1.16690431   0.42337459
C    0.72682951  -1.34779319  -1.89494132
H    0.93637281  -2.30039228  -2.33488080
H    1.54250958  -1.05827288  -1.26586015
H    0.59615053  -0.61912008  -2.66750691
C   -0.56064798  -1.44220014  -1.05524552
N   -1.51923350  -1.51249040  -0.43005383
