12
Energy:    -19.32943630
C   -0.17853712   2.28687875  -0.20600198
H   -0.33036588   3.19925191  -0.74398286
H    0.86435105   2.04772700  -0.19652565
H   -0.52693269   2.40320221   0.79897985
C   -0.95956877   1.15052234  -0.89177429
N   -1.54108234   0.30445333  -1.40236294
C    0.31561604  -2.30007121   0.12590834
H   -0.64059182  -2.68416398   0.41407400
H    1.05095558  -3.07258412   0.21192373
H    0.27261560  -1.95984157  -0.88764671
C    0.69539050  -1.12509786   1.04613060
N    0.97814985  -0.25027680   1.73127790
