12
Energy:    -19.51647597
C    2.40819376   0.83932864  -0.39908245
H    1.74736051   1.68057062  -0.37646545
H    2.96726706   0.84937673  -1.31135170
H    3.08039947   0.89138283   0.43177791
C    1.58717684  -0.46081415  -0.31446594
N    0.97589243  -1.42882955  -0.25146510
C   -2.33431335  -0.87744324   0.40903970
H   -1.71035568  -1.57554975  -0.10886406
H   -3.31220071  -0.88260750  -0.02525137
H   -2.40056930  -1.15503530   1.44027773
C   -1.72955905   0.53426854   0.29527636
N   -1.27929198   1.58535213   0.21057438
