12
Energy:    -19.60733260
C    0.73032856  -1.22222130  -2.08386684
H    0.46371862  -0.20787658  -2.29581989
H    0.00547849  -1.87946387  -2.51690687
H    1.69432521  -1.43167592  -2.49828005
C    0.76985534  -1.43472377  -0.55911101
N    0.79928483  -1.59294152   0.57613901
C   -0.70345624   1.16258391   2.07058213
H    0.16393276   1.62618695   2.49201864
H   -0.61697805   0.09954617   2.15643887
H   -1.57520635   1.49307881   2.59567636
C   -0.82164364   1.54965686   0.58471328
N   -0.90963954   1.83785027  -0.52158363
