12
Energy:    -19.33701811
C    1.32123721  -1.24856321   1.53977768
H    2.02600929  -2.00063775   1.82714570
H    0.39732086  -1.41016895   2.05471579
H    1.70666775  -0.28309991   1.79320024
C    1.08190885  -1.32309220   0.02031482
N    0.90371800  -1.37858241  -1.11099434
C   -1.20148994   1.30155604  -1.54469764
H   -1.65904401   0.43847091  -1.98130790
H   -0.16982050   1.33911996  -1.82602701
H   -1.69834613   2.18307254  -1.89249310
C   -1.31268559   1.22096452  -0.01083307
N   -1.39547580   1.16096046   1.13119883
