25
Energy:   -465.09516542
O    1.23322180   0.90932217   1.15153233
H    1.54316684   1.38901955   1.91968358
H    1.66316688   0.05623703   1.21173870
O   -4.07996783  -0.15871628   0.80360591
H   -4.55093515  -0.92464653   1.13189312
H   -4.76702445   0.47429891   0.59509494
O   -0.32739138  -0.07096807  -1.96371812
H   -0.74537688  -0.03703087  -2.82416466
H    0.21697853   0.71564955  -1.93016272
O    2.12908487  -1.67869436   1.23660833
H    2.03696640  -1.88210231   0.30581767
H    2.93527499  -2.12213332   1.50052350
O   -0.53243528  -1.93475724   1.91681901
H   -0.74596958  -2.68540952   2.47103567
H    0.41378405  -1.99494942   1.78537426
O   -1.38842515   2.73908671  -0.25374394
H   -1.76262253   3.61816079  -0.31236917
H   -0.54692872   2.80587692  -0.70502509
O    1.57941425  -1.99833134  -1.38864501
H    0.90924377  -1.39938914  -1.71784345
H    1.78643355  -2.56054139  -2.13516676
O    1.12123011   2.16771323  -1.30894146
H    1.38698022   1.80921514  -0.46213106
H    1.90276275   2.61227919  -1.63727009
K   -1.42781413   0.18572793   0.56827255
