25
Energy:   -462.95417698
O   -0.77918676   1.08712507   3.21800290
H   -0.44762881   1.83073098   3.72134317
H   -1.59319878   0.84299987   3.65847897
O    0.24503898  -1.34228514  -0.35935754
H    0.47637789  -1.31837795   0.56915880
H   -0.70703331  -1.24416058  -0.37207705
O   -0.92708166   1.59988404   0.47082622
H   -1.61927162   1.01350924   0.16542566
H   -0.94567363   1.51701628   1.42425116
O   -0.96019185   0.46916231  -3.09744429
H   -1.34098038   0.75172500  -3.92894310
H   -0.33574841  -0.21471703  -3.33954196
O    1.03174002  -0.79081408   2.25608796
H    0.40840802  -0.18961852   2.66382924
H    1.21545820  -1.44177994   2.93337883
O    2.73931689   0.79023114   0.75196329
H    3.61708963   0.87876337   1.12332417
H    2.27378221   0.22506969   1.36848730
O   -2.33888082  -0.40283876  -0.83391091
H   -3.23271421  -0.72982994  -0.93574651
H   -2.08390487  -0.12346200  -1.71321047
O    1.30821430  -1.10785323  -2.89594299
H    1.04934060  -1.55936551  -2.09260438
H    1.84551822  -1.74490163  -3.36679933
K    1.04570495   1.17148900  -1.26510134
