25
Energy:   -463.67148978
O    0.72655719   0.72732167   1.43259894
H   -0.20858896   0.88889920   1.30759403
H    0.76331108  -0.01514946   2.03560608
O   -0.47731167  -1.66495225  -1.26057756
H   -1.02586344  -1.96386516  -0.53533700
H   -0.95803878  -0.92783035  -1.63712051
O   -1.69978780  -1.95194508   1.21786322
H   -1.94971608  -1.02855792   1.18433933
H   -2.49599231  -2.40622097   1.49340568
O   -1.96461041   0.78177056   0.81190780
H   -2.62153445   1.42200614   1.08536906
H   -1.88861133   0.90508815  -0.13426806
O    1.34520136   1.18011870  -2.25734683
H    1.86609137   1.67598098  -1.62566174
H    1.66324622   1.47137342  -3.11189349
O    0.98844611  -2.06569129   1.85135018
H    1.20433787  -2.67895046   2.55387121
H    0.04567172  -2.17014372   1.72290571
O    2.86595994   1.68576736  -0.00474378
H    2.19464446   1.68117875   0.67756577
H    3.51720108   2.31589497   0.30356778
O   -1.40231168   0.88207687  -1.89124404
H   -1.90921132   1.18758474  -2.64354022
H   -0.49918170   1.12419938  -2.09609709
K    1.93050011  -0.92901588  -0.47986023
