25
Energy:   -467.27523228
O    1.03360031   0.43940450  -2.01141401
H    0.14041808   0.78348353  -2.01959856
H    1.25763435   0.33135473  -2.93573314
O   -0.74515870  -3.56388960  -1.10770364
H   -1.59899844  -3.98812837  -1.19262135
H   -0.12131227  -4.21285423  -1.43311475
O   -2.37544051  -0.74144619   1.51385460
H   -2.49256758   0.20763368   1.47189619
H   -3.09078093  -1.04710961   2.07160885
O   -2.03321500   1.97915033   1.01046021
H   -2.30255702   2.83273339   1.34969861
H   -1.12367398   1.88460104   1.29335136
O    2.77478273   1.18328510  -0.01568161
H    3.47405254   1.79861157  -0.23619670
H    2.30184679   1.05286351  -0.83760232
O    2.40452080  -1.49983496   0.62946258
H    3.14404464  -2.03325700   0.92066229
H    2.78155817  -0.63514250   0.46703842
O    0.52068141   1.09784639   1.55761943
H    1.33727597   1.29358726   1.09817337
H    0.77620586   1.01467811   2.47632621
O   -1.62295816   0.81550255  -1.44333702
H   -1.86775901   1.34528319  -0.68462965
H   -2.37888560   0.86992021  -2.02801153
K   -0.19145934  -1.18433228   0.01435252
