25
Energy:   -463.14984262
O    0.04086863   2.78924824  -3.04749291
H   -0.10888187   3.73228502  -2.98049838
H    0.46852415   2.67384831  -3.89603605
O    1.90935009  -1.10680362   0.14700931
H    1.99400541  -0.27613784  -0.32102882
H    2.56595435  -1.67623893  -0.25404695
O   -1.90123479   0.94773430  -2.24279072
H   -2.69131385   1.02560759  -2.77752679
H   -1.30954039   1.61511933  -2.59024835
O    1.22616936  -0.63497446   2.77176806
H    1.89946054  -0.73116511   3.44530959
H    1.66559030  -0.87774914   1.95678245
O   -1.32604014  -3.21687733  -0.36702868
H   -1.52877928  -4.10914136  -0.64808667
H   -1.31996867  -3.26197575   0.58908905
O    1.13992423   1.28595128  -0.96701048
H    0.89058483   1.88185411  -1.67338258
H    0.86493682   1.73376207  -0.16696094
O   -1.16740300  -1.87154174   2.15370492
H   -0.35071340  -1.56773391   2.54987502
H   -1.75658776  -2.01067968   2.89514527
O   -0.15150296   1.41855540   1.52171672
H   -0.51927306   2.10582554   2.07726759
H    0.34834783   0.86603898   2.12263821
K   -0.85385441  -0.58944598  -0.31778176
