25
Energy:   -465.25095905
O    0.14012856  -2.71138762  -1.13013994
H    0.29387051  -3.63072720  -1.34787831
H    0.65418845  -2.56355609  -0.33633889
O   -0.47297973  -0.29889113   2.34241041
H   -0.20829195   0.59147734   2.11129096
H   -0.66064673  -0.25769208   3.28012869
O   -1.80082004   1.92811121  -0.71309088
H   -2.45753578   2.59482609  -0.91420664
H   -2.28268926   1.25306733  -0.23523142
O   -2.30921827  -0.58119312   0.29400631
H   -3.01759383  -1.18974974   0.50399381
H   -1.74428330  -0.59472658   1.06659752
O    1.35158944   0.73621775  -3.37160833
H    1.94337578   1.00830379  -4.07302830
H    1.87344985   0.81540959  -2.57309583
O    0.19692263   2.13131116   1.20753958
H    0.44921566   3.00693248   1.50057094
H   -0.48608134   2.28427169   0.55459202
O    1.49900249  -1.80315130   1.10238188
H    0.85178918  -1.39611165   1.67828596
H    2.13786697  -2.19455151   1.69810824
O    1.52421895   0.43852283  -0.53696355
H    1.28291934   1.11837180   0.09217215
H    1.76246898  -0.31482000   0.00335427
K   -0.66690698  -0.31882577  -1.98983315
