25
Energy:   -465.66392269
O   -0.61656903   1.94042394   0.54722226
H   -0.43008590   1.68499282   1.45066614
H   -1.23357751   2.66797066   0.62601409
O    1.85715682   1.84231557  -0.71294700
H    2.42677357   2.61125187  -0.69046197
H    1.04830067   2.13038788  -0.28986553
O    1.56202068  -0.41643496   0.89064714
H    1.95329197   0.30691628   0.40084963
H    1.82223746  -1.20128214   0.40842936
O   -3.16924056  -1.18300197  -1.80618375
H   -4.01780992  -1.32571092  -1.38690335
H   -3.34068522  -1.29944116  -2.74067853
O    0.79802544   0.09971301  -2.55545929
H    0.83640331   0.37344033  -3.47188295
H    1.27942677   0.77817167  -2.08198441
O    1.27097283  -2.30402668  -1.17458116
H    1.40033132  -1.70633824  -1.91096880
H    1.65511801  -3.13083222  -1.46622635
O    0.08774473   0.70895923   2.92467820
H    0.48293855   0.89848503   3.77563864
H    0.77056957   0.24397255   2.44118106
O   -1.87462553  -1.00734687   2.00154693
H   -1.30650993  -0.45539888   2.53897594
H   -2.42227653  -1.47431561   2.63261778
K   -0.89539500  -0.68635007  -0.46595840
