25
Energy:   -464.86773739
O   -0.22406769   0.73083108  -2.76252005
H   -0.74934381   1.09496470  -3.47506728
H   -0.54995005  -0.16293761  -2.65664251
O   -1.08249637  -1.72210436  -1.83140049
H   -1.56197937  -1.33727607  -1.09775542
H   -1.66657194  -2.40044733  -2.17042614
O    0.01009663  -1.59697767   2.26264097
H   -0.02089934  -2.40802878   2.77005323
H    0.52362129  -1.81923683   1.48602965
O   -1.38330570   2.30513018   1.45355162
H   -1.91845040   3.04252848   1.74697236
H   -0.82669819   2.09876122   2.20443895
O    2.43802634   1.55609029  -2.03124716
H    3.22409233   1.85971471  -2.48527835
H    1.83929986   1.30032225  -2.73291743
O    1.18878503  -1.56959140  -0.25568226
H    0.49672728  -1.81579103  -0.86941972
H    1.97603634  -1.99150535  -0.59985640
O    0.83348682   1.00658469   2.61758591
H    1.41580029   1.18456468   3.35614260
H    0.59173221   0.08598746   2.71901224
O   -1.69914723  -0.32821738   0.46410410
H   -1.37279872  -0.83307690   1.20898354
H   -2.05083753   0.47275681   0.85267343
K    0.59153476   1.17143799  -0.14514144
