25
Energy:   -463.37328528
O    1.04001627   0.65616859  -2.51932908
H    0.23874253   1.17978831  -2.52315576
H    1.39837102   0.75939431  -3.40089483
O   -2.02383217  -0.84287665  -2.03397032
H   -2.88823309  -1.12581779  -2.33227755
H   -2.00028007   0.09536514  -2.22206469
O    0.44337724  -1.54040978   3.54898045
H    1.18265749  -1.51051453   4.15627185
H   -0.32686485  -1.61676138   4.11212288
O   -1.37344729   2.25468182   0.36247772
H   -1.70286889   2.87445113   1.01332277
H   -0.87659473   1.61391051   0.87118344
O    0.20852340   0.25385793   1.42314972
H    0.29156589  -0.24611753   2.23515978
H    1.11011371   0.45254804   1.17038699
O    0.55386504  -3.10672835   1.24011431
H    0.65290849  -4.03563554   1.44880949
H    0.53140847  -2.67047446   2.09182442
O    2.47629263   0.27025689  -0.16871506
H    2.22939600   0.68369595  -0.99596475
H    3.41065677   0.45663632  -0.07674654
O   -1.42835102   1.84110438  -2.30959125
H   -1.46544985   2.08326524  -1.38427312
H   -1.84991764   2.56962687  -2.76540747
K    0.25323030  -1.39037440  -0.78050198
