25
Energy:   -463.43551128
O    0.40106730   0.85598168  -2.25293953
H   -0.55597881   0.84063202  -2.24525959
H    0.62997275   1.10072086  -3.14956481
O   -1.28906582  -1.89307707  -1.13030950
H   -1.83281366  -2.64564819  -1.36313313
H   -1.80584469  -1.13233883  -1.39573137
O   -0.50274505  -0.62687500   2.19898558
H    0.33339404  -0.30528301   2.53615299
H   -0.81568678  -1.23225798   2.87115429
O   -1.92072355   1.41373299   0.96701608
H   -2.48659108   1.90649741   1.56132998
H   -1.60078594   0.68070758   1.49289203
O    0.74593875   1.86269935   0.33362666
H   -0.17167736   1.96914277   0.58439013
H    0.74667240   1.95534287  -0.61907922
O    3.04361577  -2.58193911  -0.68706558
H    3.08521773  -3.26678073  -1.35451826
H    3.89137542  -2.62603834  -0.24480921
O    2.10354441   0.30856643   2.14774906
H    1.84590083   1.11298194   1.69745213
H    2.82155405   0.57451893   2.72217335
O   -2.29657548   0.62952940  -1.65658334
H   -2.31744650   0.96495950  -0.76032283
H   -3.10151496   0.96011288  -2.05535502
K    1.00792163  -0.91228229  -0.17464760
