25
Energy:   -463.00655172
O    0.62536979   0.19791382  -2.91050574
H    0.95301700   0.41761583  -3.78263542
H   -0.29138931   0.47295377  -2.92223677
O   -1.57155037  -2.07531089  -1.48074570
H   -2.21262815  -2.72220872  -1.77532051
H   -1.91753375  -1.23740150  -1.78804879
O   -0.46847986  -0.93984660   1.64999956
H    0.23619370  -0.57434289   2.18485848
H   -0.90659869  -1.56642916   2.22591451
O   -1.83137842   1.22037021   0.53430485
H   -2.45793897   1.63421218   1.12792809
H   -1.54403124   0.43422777   0.99867916
O    0.92623015   1.67969813   0.51038506
H   -0.02933143   1.73522987   0.50330415
H    1.21640390   2.48051504   0.07366624
O    3.01108838  -1.42278687   0.86135373
H    3.92086714  -1.67565339   1.01817519
H    2.77410352  -0.89433756   1.62346353
O    1.79248561   0.24263811   2.69283948
H    1.61848656   0.92279007   2.04218636
H    2.10249285   0.72025469   3.46226119
O   -2.06462427   0.56009020  -2.15695990
H   -2.11413300   0.88873380  -1.25931069
H   -2.79471402   0.98379755  -2.60826123
K    0.90096147  -1.34161332  -0.74656691
