25
Energy:   -463.19851161
O   -2.72756132  -0.90605720  -1.46629934
H   -2.75184434  -0.19193557  -0.82937511
H   -3.35833174  -0.64927059  -2.13892195
O   -1.73300623  -3.51136164  -0.90166536
H   -2.12832094  -4.38174104  -0.85269767
H   -2.47248351  -2.91930383  -1.03904343
O   -0.29893860  -0.59655159   1.50547110
H    0.53549882  -0.14011459   1.61322694
H   -0.37250315  -1.14905670   2.28364730
O   -2.22629061   1.05361751   0.40872296
H   -2.78413802   1.54561657   1.01119706
H   -1.65268858   0.54033239   0.97771413
O    2.02787866   2.85272292  -0.16173166
H    1.78028847   3.72759084   0.13749579
H    2.72982738   3.00518932  -0.79438785
O    2.51780963  -1.42771460  -0.29735263
H    3.38818236  -1.82604738  -0.30111472
H    2.57429460  -0.73380387   0.35955618
O    2.18488489   0.64494399   1.51995014
H    2.16725025   1.44100333   0.98871537
H    2.73493136   0.86941382   2.27047930
O    0.05125121   1.18305127  -1.21690537
H    0.69112572   1.84033775  -0.94346994
H   -0.75831587   1.43745483  -0.77406023
K   -0.00836874  -1.49129938  -1.15751778
