25
Energy:   -468.34906039
O    0.23123313   1.91646236   0.22908873
H   -0.70581013   1.73257252   0.16301076
H    0.32407367   2.81067111  -0.09954966
O   -2.33854983   1.05114558  -0.29796004
H   -2.36285382   0.14842887   0.01944146
H   -3.20302330   1.40336288  -0.08615724
O   -1.97951418  -1.54113133   0.56114971
H   -1.11412168  -1.52562156   0.96991263
H   -2.51763277  -2.06098980   1.15814837
O   -0.55940025  -2.37374891  -1.68856079
H   -0.89510600  -3.08108855  -2.23920053
H   -1.22273667  -2.26461378  -1.00716064
O    1.88737935   0.90727973   2.18535669
H    1.98453779   1.38514804   3.00902772
H    1.28711388   1.44279990   1.66657796
O    0.68677934  -1.37255577   1.23834353
H    1.13141080  -2.16066713   1.55045761
H    1.08463049  -0.65905777   1.73720916
O    3.36730957   0.29829137  -0.09594168
H    4.32039695   0.38686271  -0.09256303
H    3.09988893   0.54861625   0.78839734
O   -0.86366730   1.00056296  -2.66848945
H   -1.28417628   1.24055458  -3.49420615
H   -1.55647702   1.08381315  -2.01326739
K    1.08588275  -0.28765832  -1.35341471
