25
Energy:   -463.38484426
O   -0.76058820   1.28126322  -0.85914400
H   -1.36593938   1.27563162  -0.11769266
H   -1.32597144   1.32607630  -1.63022468
O   -0.94437472  -1.44857536  -2.77476040
H   -1.45566339  -0.66929801  -2.99280298
H   -1.14469889  -2.07051031  -3.47425950
O   -0.28952442  -1.08573056   2.13092375
H    0.52840623  -0.70400013   2.44951937
H   -0.49097961  -1.77973334   2.75862416
O   -2.18728068   0.80878523   1.38862644
H   -2.80650740   1.11025794   2.05338528
H   -1.64389754   0.16400316   1.84164155
O    1.82884478   1.29354572   0.06620791
H    0.97887089   1.62501828  -0.22345080
H    2.46591038   1.88843702  -0.32937220
O    2.62584337  -2.12276428   0.70565737
H    3.36490303  -2.72520567   0.78984193
H    2.72651196  -1.51552347   1.43870326
O    2.21630969  -0.00060999   2.47648103
H    2.18554996   0.62035899   1.74868765
H    2.68253849   0.46573182   3.17030224
O   -2.31023106   0.95634599  -3.15797726
H   -3.26113092   0.98466951  -3.05205706
H   -2.13663989   1.51290366  -3.91714886
K    0.47601485  -1.14783324  -0.53762654
