25
Energy:   -468.67192076
O    2.31907355  -2.59228285  -2.74925873
H    1.97315166  -3.12079963  -3.46845266
H    3.24837667  -2.81841796  -2.71065209
O   -0.39511389  -1.33922360   1.21538123
H   -0.00472022  -0.65700531   1.76164385
H   -0.34766838  -2.13150720   1.75042092
O   -2.63930948  -0.03108357   0.31996732
H   -3.47388333  -0.33592553   0.67604277
H   -1.98403969  -0.60058871   0.72310159
O   -1.57164349  -1.01109594  -2.04688410
H   -2.10678125  -0.62435365  -1.35385464
H   -2.17207102  -1.11244023  -2.78542858
O    0.48736035   1.79179038  -1.23098268
H   -0.10649127   2.09176552  -0.54280610
H    0.72006134   2.58684086  -1.71054168
O    2.66056504  -0.13412893   0.75125801
H    2.13029468   0.33889323   1.39258105
H    3.56359083   0.00706641   1.03558202
O    0.66645420   0.90377598   2.40415230
H    0.06574401   1.51102148   1.97214302
H    0.75057253   1.24273040   3.29536825
O   -1.21606983   2.26094003   0.88928210
H   -1.75317351   3.03775638   1.04519186
H   -1.84664329   1.56993825   0.68648789
K    0.97275916  -0.84718455  -1.21329804
