25
Energy:   -464.88120302
O    1.41083725   0.04363816  -3.32112784
H    0.78564232   0.76842248  -3.32825708
H    1.73652786  -0.00120911  -4.22009736
O   -0.31149845   0.83712987  -0.51653059
H   -1.15866351   0.42202150  -0.35457922
H   -0.44905154   1.36415001  -1.30365241
O    0.39682006  -2.82099340   0.66471886
H   -0.11936938  -2.39623470   1.34981765
H    0.27822860  -3.75788476   0.82093186
O   -2.51894353  -0.51152592   0.25277714
H   -2.20246110  -0.88759240   1.07414473
H   -3.45325662  -0.71907077   0.23807881
O    0.31456101   1.06611070   2.16114424
H    0.04570806   1.19345151   1.25134522
H    0.12869527   1.90359009   2.58577825
O    2.73383729   0.11439697   1.21583989
H    3.50661171   0.26668401   1.75977023
H    2.01159109   0.50011804   1.71163373
O   -1.05628564  -1.31788360   2.47388343
H   -0.57890741  -0.49030806   2.53271019
H   -1.29642830  -1.52119633   3.37788967
O   -0.45704522   2.09422444  -3.00623377
H   -0.17504053   3.00434481  -3.09780956
H   -1.28662193   2.05101916  -3.48180462
K    1.61844329  -1.05486660  -0.90142620
