25
Energy:   -465.37920489
O    1.25516219  -1.43890603  -3.75478638
H    0.82755310  -1.27117398  -4.59457699
H    2.05974272  -1.90411024  -3.98384329
O   -2.03487376   0.15637087  -1.81961474
H   -2.43829757   0.41856786  -0.99212829
H   -2.67610682   0.40026773  -2.48712230
O   -0.82995272  -1.22710167   1.21764117
H   -0.07457362  -0.94362817   1.73269167
H   -1.06474559  -2.07925096   1.58499080
O   -2.74566075   0.71770807   0.78536964
H   -3.55286700   0.61144245   1.28871598
H   -2.18111406   0.00464734   1.08380436
O    1.38964906   1.38584003   0.06564743
H    0.63912479   1.92220271   0.32110828
H    2.06484231   2.01876601  -0.17879202
O    2.26359232  -2.08175197   0.15327093
H    2.95218357  -2.73691215   0.26658061
H    2.22852945  -1.62282572   0.99254987
O    1.57983384  -0.34141194   2.21143692
H    1.63574375   0.40586339   1.61588212
H    1.91650478  -0.01040397   3.04409427
O   -0.82830813   2.69978255   0.84030053
H   -1.16592225   3.57029329   1.05115500
H   -1.59812608   2.13143497   0.86465619
K    0.39603156  -0.80654196  -1.29136204
