25
Energy:   -463.97297394
O    0.32628818   1.65425103   2.46899984
H    0.57135571   2.42087412   2.98713379
H    1.07160774   1.51047547   1.88585389
O   -0.76969328   2.01462882  -1.87610487
H   -0.61069037   2.90330973  -2.19421833
H   -0.06110942   1.49396851  -2.25432913
O    1.22067688   0.19519259  -2.43072550
H    0.75814421  -0.60725447  -2.18911819
H    1.74064545  -0.04879989  -3.19644882
O    1.63665327   0.47729756   0.32847907
H    1.79471052   0.52894477  -0.61416738
H    1.86304072  -0.42326478   0.56078929
O   -0.48355109  -0.98272517   2.69505551
H   -0.13584758  -0.13404359   2.96905128
H   -0.90531143  -1.33380732   3.47933314
O   -0.26723317  -1.74075768  -1.08606148
H   -0.70535972  -2.50658822  -1.45724951
H    0.33553156  -2.10093773  -0.43554103
O   -3.32083575   0.88202538  -1.10541295
H   -2.84136492   1.38546677  -1.76335393
H   -4.23257621   0.91567848  -1.39494473
O    1.39696897  -2.21145718   1.05654978
H    1.96916509  -2.88709589   1.42032964
H    0.81321240  -1.97733624   1.77810886
K   -1.15289078   0.46749401   0.38382089
