25
Energy:   -462.98433541
O    2.14738912   0.37562878  -0.57982569
H    3.02935130   0.59213147  -0.88231728
H    1.96941941   1.00988010   0.11464093
O   -0.50757891   2.51526731  -0.75405453
H    0.07384243   2.56738475   0.00453946
H   -0.95634885   3.36057825  -0.77098952
O   -0.16191441   0.46269590   2.86882656
H   -0.50028868   0.55127033   3.75983120
H   -0.47257299  -0.39480235   2.57827565
O    0.89863351  -2.04733867  -0.25515965
H    1.56160218  -1.35895647  -0.20192120
H    1.39046893  -2.83740557  -0.47904370
O   -0.48015325  -0.34657583  -4.33936007
H   -0.14155044   0.23787321  -5.01759257
H   -0.91137307  -1.05108663  -4.82303956
O    1.28008682   2.14982657   1.31797445
H    0.78701150   1.59764088   1.92476894
H    1.74579713   2.76840429   1.88074203
O   -0.94816984  -1.95940464   1.79251558
H   -0.24778053  -2.12854148   1.16237321
H   -1.03277918  -2.77729205   2.28254955
O   -2.47007192  -0.99296794  -0.29411512
H   -3.41973253  -1.02827525  -0.17952907
H   -2.11689691  -1.36818670   0.51255095
K   -0.43356806   0.01855387  -1.68055666
