25
Energy:   -463.44208397
O   -0.45435468   0.47505243  -3.36621735
H    0.15274792   0.86590540  -2.73781283
H   -0.21951588   0.87148297  -4.20521999
O   -0.29524456  -2.00066365  -2.12515855
H   -0.20118095  -2.79029853  -2.65794427
H   -0.31041448  -1.28374369  -2.75921493
O   -0.57199464  -1.36560176   2.78677263
H    0.26988988  -1.14420227   3.18482360
H   -1.08545108  -1.73881660   3.50322571
O   -1.31021478   2.00202700   0.53100203
H   -1.67313891   2.75140019   1.00318603
H   -1.93943785   1.83253331  -0.17012711
O    0.84357277   1.26603646  -1.07872153
H    0.33307349   1.86383524  -0.53259063
H    1.53149218   0.93941898  -0.49879070
O    2.02522470  -0.45330511   0.81632280
H    2.11351393  -0.45686130   1.76943570
H    2.80620495  -0.90832162   0.50126460
O    1.99159539  -0.61237145   3.60060698
H    2.09786876   0.19239473   4.10784382
H    2.53874311  -1.25482689   4.05239480
O   -2.51757098   0.57240720  -1.52441080
H   -3.40273029   0.49298077  -1.87996150
H   -1.95050738   0.59549483  -2.29521407
K   -0.69301239  -0.73138584   0.19286809
