25
Energy:   -467.25763464
O    1.90355392  -2.74062823   1.13238358
H    2.52698293  -3.39551702   1.44653131
H    1.60846738  -2.29094664   1.92418042
O   -1.49630648   1.63132634   0.44987215
H   -1.39508064   1.82180436  -0.48270669
H   -2.01394879   2.36151151   0.78914771
O    0.62096584  -1.07280533   2.92516719
H   -0.24337930  -1.14110627   2.51961287
H    0.44482009  -1.06684487   3.86600139
O    1.76314800   0.95463784  -1.76160240
H    2.59706772   1.25650543  -2.12172141
H    1.82101838   1.14962178  -0.82626068
O   -0.81117119   1.87404100  -2.22571884
H    0.13210196   1.71206903  -2.21046484
H   -0.91982765   2.60185519  -2.83785619
O    1.11502034   0.78713874   0.89227866
H    1.17420849   0.34477168   1.73906080
H    0.28381386   1.26059512   0.92643540
O   -1.24604893  -0.83426357  -2.58616851
H   -1.84394468  -1.11872779  -3.27742289
H   -1.27158520   0.12179927  -2.62520173
O   -1.48024253  -1.07128888   1.06432453
H   -1.66366292  -0.14665032   0.89809475
H   -2.34356835  -1.48075392   1.12123464
K    0.60477844  -1.42184762  -0.76640225
