25
Energy:   -464.25360192
O    1.10424508   1.47665118  -1.36970267
H    1.00760810   1.88191702  -0.50792965
H    0.22427213   1.49948209  -1.74567902
O   -0.42690653  -1.54534309  -1.76825795
H   -0.81507989  -2.14935465  -2.40128506
H   -0.85298900  -0.70651529  -1.94447800
O   -1.37239783  -1.46199699   0.85758609
H   -1.14361298  -1.66280720  -0.04991851
H   -1.81371146  -2.25030175   1.17389250
O   -2.10283766   1.20137671   0.72147001
H   -2.91384242   1.42003173   1.18048321
H   -1.97266328   0.26910217   0.89510947
O    0.47755290   2.07658578   1.26536761
H   -0.46552028   1.93417313   1.18435247
H    0.55639870   2.84911282   1.82502567
O    3.60689481  -2.07843512   0.73049638
H    3.02257925  -1.74737493   1.41255674
H    4.30804104  -2.52072210   1.20904421
O    1.22209546  -0.59500443   1.31369310
H    0.34604400  -0.97647497   1.37066598
H    1.08855082   0.33844213   1.47823853
O   -1.55683420   0.95365405  -1.97711655
H   -1.87640497   1.14873742  -1.09618020
H   -2.14772061   1.43254148  -2.55828084
K    2.22950575  -0.90521545  -1.21316603
