25
Energy:   -464.49204024
O    0.16648134  -0.08697433  -3.31345593
H   -0.19378248   0.70155995  -2.90767825
H   -0.12505286  -0.04286858  -4.22411192
O   -0.98374450  -2.32675738  -0.20296922
H   -1.21412597  -1.82211309   0.57708870
H   -1.72251181  -2.92186491  -0.33064747
O   -1.40824357  -0.66038542   1.94941432
H   -0.51282612  -0.38394409   2.14445184
H   -1.77727654  -0.89647951   2.80047606
O   -2.33048434   1.27051541   0.19020516
H   -3.23459982   1.50466331   0.39992357
H   -2.09385863   0.61522754   0.84658762
O    1.60108636   1.06547567  -0.41832689
H    2.35097807   1.63855113  -0.57794768
H    0.86343662   1.51502671  -0.83064784
O    2.57134319  -1.95137374   0.90638924
H    2.19652520  -1.32772614   1.52832733
H    3.13913944  -2.50894297   1.43832516
O    1.21941887   0.13318052   2.15305793
H    1.35369433   0.61303109   1.33577868
H    1.55357427   0.71853615   2.83271284
O   -0.58730023   2.05126041  -1.72617007
H   -1.26413933   1.80624960  -1.09522602
H   -0.82510579   2.93661022  -2.00155359
K    1.26523118  -1.53935793  -1.37820759
