25
Energy:   -463.20865306
O   -0.68291912   1.29317752  -2.99172440
H   -1.51930876   1.18783281  -2.53830769
H   -0.91903577   1.63240955  -3.85509130
O    0.36151461   0.65476034   1.16691549
H    1.12395106   0.31513570   1.63550658
H    0.71631373   1.33035857   0.58906043
O   -1.34574086  -2.30374695   0.41254867
H   -1.65514901  -3.14874804   0.73884853
H   -1.81846835  -1.65665505   0.93602995
O   -2.30534592   0.09099697   1.48184109
H   -1.40491824   0.40350954   1.57014596
H   -2.76191313   0.45743629   2.23913921
O    1.23090450   1.92999390  -1.11669202
H    1.92088943   2.56809773  -1.29828533
H    0.62203821   2.01973430  -1.84980890
O    2.50661148  -1.58492924  -0.35311833
H    3.27736703  -2.11162079  -0.56469278
H    2.66446834  -1.27616570   0.53905774
O    2.65765444  -0.52748963   2.22649273
H    3.38715032   0.03209518   2.49282418
H    2.54126583  -1.13424417   2.95761137
O   -2.56528111   0.27532201  -1.25796385
H   -3.43694861  -0.00584706  -1.53612130
H   -2.62245505   0.32562656  -0.30379801
K    0.11869435  -0.75933729  -1.22353548
