25
Energy:   -465.69084351
O   -0.03299980   1.77992842  -1.98554685
H   -0.70924729   2.08959561  -1.38302929
H   -0.17154059   2.28924550  -2.78406699
O   -2.67727243  -0.16751782  -1.50223982
H   -3.57903390  -0.33101936  -1.77851026
H   -2.70944787   0.68651051  -1.07115722
O    1.57873602  -2.49577501   0.46388146
H    1.95064193  -1.78080814   0.98035044
H    2.24938340  -3.17853351   0.48133889
O   -0.49495276   0.36455051   1.29285723
H   -0.88238364  -0.46337426   1.57688144
H    0.39418397   0.34740458   1.64693877
O    2.25709072   0.59389638  -1.07038921
H    1.63700353   1.25113137  -1.38624662
H    3.05199951   0.74919587  -1.58052049
O   -1.12875536  -2.34502613   1.13221342
H   -1.71209418  -2.98526553   1.53969493
H   -0.25841665  -2.73820547   1.19665243
O    2.23861161  -0.07238888   1.60533825
H    2.43006279   0.30399898   0.74632109
H    2.89785047   0.30749755   2.18613277
O   -2.02153008   2.16499588  -0.12051705
H   -1.56777821   1.68160048   0.56989586
H   -2.45420528   2.88639732   0.33621480
K   -0.14937510  -0.94888168  -1.11875430
