25
Energy:   -462.83891272
O    1.55821253   0.81693301  -1.24121674
H    2.03977357   0.93569534  -0.42254323
H    0.89386175   1.50596504  -1.23098232
O   -2.23512204  -2.27188383  -1.05326841
H   -3.00074440  -2.81248510  -1.24770224
H   -2.36904577  -1.47355543  -1.56411873
O   -0.89430342  -1.28527253   1.15497948
H   -0.72261719  -1.93479684   1.83679607
H   -1.61639292  -1.65544552   0.64724868
O   -0.33800777   1.33578901   1.75634983
H   -0.78855790   1.62020915   2.55154893
H   -0.62004137   0.42960237   1.63179197
O   -0.80041713   2.23489112  -0.81615964
H   -0.72147747   2.05490475   0.12064626
H   -1.01139469   3.16730101  -0.86445160
O    2.32445020  -1.93122871   0.63160619
H    3.07284685  -2.43385066   0.95332884
H    2.44099398  -1.05923030   1.00879071
O    2.35431726   0.73509812   1.42119298
H    1.48320423   1.03106694   1.68538305
H    2.95674400   1.28167732   1.92573740
O   -1.52245948   0.06221465  -2.36337857
H   -1.38244294   0.86639447  -1.86345655
H   -1.78005874   0.36312028  -3.23477416
K    0.49042526  -1.59885141  -1.29147718
