25
Energy:   -463.68919751
O    0.57890908   1.69868766  -1.13942349
H   -0.15632264   1.94435869  -0.57789709
H    0.52014055   2.29461278  -1.88618407
O   -1.44468728  -1.05321780  -2.75952839
H   -1.88208163  -1.43971016  -3.51817303
H   -2.02601517  -0.34508761  -2.48232563
O   -0.71027794  -0.54713394   1.39869636
H    0.07657238  -0.63287463   1.93697785
H   -1.34865055  -1.12800974   1.81257505
O   -1.57755912   1.93246670   0.54294778
H   -1.37010854   1.11956240   1.00379776
H   -1.84893964   2.53726163   1.23346032
O    2.64816803   0.41467160   0.15618225
H    3.55283397   0.66203327  -0.03519065
H    2.12314029   1.13282579  -0.19713388
O    1.58140977  -2.95268915   0.57599467
H    1.87654088  -3.84534349   0.75571029
H    1.77183295  -2.47040422   1.38058905
O    1.81142231  -0.89225180   2.44611264
H    2.27742139  -0.73145371   3.26661290
H    2.26757627  -0.35172591   1.80114196
O   -2.89344032   0.99997659  -1.71666091
H   -2.58084277   1.41691750  -0.91374441
H   -3.73222531   1.42455407  -1.89667632
K    0.55102226  -1.09403684  -1.03460115
