25
Energy:   -466.92735579
O    0.71032065   1.54125562  -1.91673870
H    0.14055395   1.96271293  -1.27333253
H    0.89865941   2.22773909  -2.55666120
O   -1.69601454  -1.22831316  -2.28957008
H   -2.19186137  -0.70142324  -1.66286858
H   -2.35062819  -1.53278534  -2.91806791
O   -0.52552492  -1.07203216   0.91613013
H   -0.15427735  -0.35836036   1.43485901
H   -1.40253652  -0.76788829   0.68250862
O    0.89654991   1.10351373   1.85342435
H    1.66238480   0.70715386   1.43793955
H    1.19498449   1.33878203   2.73195579
O    2.74325479  -0.48700338   0.48789026
H    3.69378159  -0.38262209   0.53072950
H    2.59037328  -1.39820981   0.73801410
O    1.46428400  -2.95991807   0.48516793
H    0.66903762  -2.63021835   0.90363314
H    1.53080593  -3.86860886   0.77857502
O   -0.88132233   2.39451604   0.16873856
H   -1.05880280   3.30200725   0.41610920
H   -0.26831390   2.08012615   0.83327713
O   -2.67295990   0.29657724  -0.18909138
H   -3.56322722   0.49919633   0.09831329
H   -2.19708591   1.12188628  -0.09613554
K    0.84205346  -1.08676242  -1.50079663
