25
Energy:   -465.00253488
O   -0.19200493   0.59671003  -2.04081252
H    0.13087263   1.41812283  -2.41130266
H   -1.06600352   0.80848771  -1.71292762
O   -1.28340150  -1.97420900  -0.20223637
H   -1.81017235  -1.18919417  -0.35222313
H   -1.59961746  -2.60297955  -0.85099434
O   -1.00036461  -2.09640854   2.54797902
H   -1.61313950  -2.61108604   3.07318931
H   -1.25753563  -2.26827516   1.64213312
O   -0.53445449   0.52187264   1.80143360
H   -0.36995426   1.14992947   2.50479420
H   -0.74570602  -0.29492455   2.25359174
O    1.31334847   2.80538927  -2.88619765
H    1.10080520   3.73372328  -2.79000424
H    1.57565262   2.71289975  -3.80209834
O    1.69591902  -2.24606828   1.91357731
H    2.29199747  -2.78568192   2.43294179
H    0.84430012  -2.35335876   2.33721143
O    2.77094182   1.40856781  -0.93701243
H    2.34239466   1.93630728  -1.61085976
H    3.64282149   1.79367834  -0.84899214
O   -2.38103015   0.56847689  -0.28263937
H   -3.23772825   0.97088518  -0.13992363
H   -1.89053779   0.75820062   0.51714435
K    1.19592338  -0.60245349  -0.12279586
