25
Energy:   -463.67915593
O    0.60347772   2.13539102  -3.14304864
H   -0.21770635   2.50990520  -2.82425764
H    0.90614086   2.75262590  -3.80911769
O   -0.66619914  -2.06576173  -0.19696767
H   -1.32657631  -1.65938087   0.36427063
H   -1.05699975  -2.89788180  -0.46358149
O    1.57972180  -1.89691028   1.41124638
H    0.75550996  -2.15278773   0.99720118
H    1.65512034  -2.47297410   2.17196800
O   -1.28932102   1.78629756   1.40864982
H   -1.33143159   2.51485195   2.02805844
H   -0.36631802   1.53292961   1.39855108
O   -2.36577089  -0.75714418   1.43570397
H   -3.12043637  -0.87257308   2.01310160
H   -2.11411102   0.15928315   1.54998477
O    2.71560123  -1.57334916  -1.11388668
H    2.57993345  -1.84185672  -0.20518993
H    3.54454393  -1.98168558  -1.36358093
O    1.24655201   0.79531021   0.93535070
H    2.03346517   1.29389957   1.15536927
H    1.41365423  -0.08159856   1.28080650
O   -1.62665232   1.54067950  -1.31621838
H   -1.61915797   1.75786555  -0.38401352
H   -2.55280869   1.55171022  -1.55776457
K    0.57750958  -0.06482406  -1.64280583
