25
Energy:   -464.19322025
O   -0.85190284   1.50839398  -1.77195627
H   -1.29367749   2.09646959  -2.38451980
H   -1.53896130   0.91245192  -1.47356797
O    1.11974182  -0.43766171  -1.94758204
H    0.57510734  -1.22061127  -1.86637178
H    0.49810962   0.27086075  -2.11431888
O   -0.51607534  -2.46803562  -0.98170526
H    0.00032108  -2.42792670  -0.17674696
H   -0.53176501  -3.39730476  -1.21071300
O   -2.41353967  -0.49193185  -0.63811576
H   -1.87900711  -1.25676131  -0.85152310
H   -3.30609228  -0.75168502  -0.86639187
O    0.54225064   1.70886281   0.61633516
H    0.07581901   1.86042931  -0.20567517
H   -0.09329784   1.25967342   1.17359531
O    0.94889926  -1.73806601   1.29498838
H    0.20830931  -1.20310867   1.58060880
H    1.08252857  -2.36297210   2.00763657
O    3.23464763   2.36027686   1.37168055
H    2.32338491   2.65229173   1.34802831
H    3.71233608   3.09541523   1.75589034
O   -1.19473121  -0.09448228   1.80642375
H   -1.79995488   0.05796667   2.53216164
H   -1.75971165  -0.20119710   1.04115197
K    2.68757392   0.08908402   0.10960331
