36
Energy:   -478.21320518
O    1.39915046  -1.32259939   2.64915852
H    2.14492950  -0.93468805   2.19137007
H    0.86149252  -1.70167404   1.95384693
O   -1.60830955   0.42053395   1.14374509
H   -1.30076888   0.58255128   2.03559764
H   -1.08308782   1.00638780   0.59863112
O    1.70081521   2.31736120   1.81722128
H    2.35053037   1.63666533   1.64184970
H    1.12121733   1.93227749   2.47449495
O    0.13876655   1.86801623  -0.33509324
H    0.69034209   2.24740888   0.34905403
H    0.00794881   2.58066548  -0.96059274
O   -0.19555014  -1.79413343   0.44673428
H    0.45669839  -1.36814589  -0.10944763
H   -0.75822394  -1.08022887   0.74668479
O    3.19874963   0.07308456   1.05982705
H    2.75751076  -0.11070235   0.23051259
H    4.12861735  -0.05092521   0.86956550
O    1.52212484  -0.33588926  -1.07526827
H    1.19118758  -0.62259397  -1.92645144
H    1.06113063   0.48504106  -0.90267167
O    0.02355487  -0.98500091  -3.23815091
H   -0.62329162  -1.57917715  -2.85765640
H   -0.42825978  -0.14307622  -3.29523144
O   -2.99721914   0.03287177  -1.26812664
H   -2.76427811   0.18742414  -0.35265742
H   -2.73167972  -0.87169278  -1.43390850
O   -1.43242349   1.34917701  -3.05500264
H   -2.00964213   1.65358009  -3.75528063
H   -2.02317284   0.96606257  -2.40656576
O   -1.77402031  -2.42962809  -1.66200932
H   -1.22613051  -2.34678502  -0.88150586
H   -2.05712116  -3.34400418  -1.66054611
O   -0.03547762   0.81749437   3.41401867
H    0.47077396   0.02285865   3.24521328
H   -0.14420851   0.83531900   4.36485605
