36
Energy:   -475.58186015
O    0.60007532  -2.37188443  -0.33862914
H    1.20821528  -2.32117137   0.39881633
H    1.01015093  -1.84500507  -1.02453583
O    1.06509278   0.02263201   3.10174679
H    1.42580519   0.82005644   2.71414818
H    0.12821868   0.06525876   2.91022200
O   -0.58199665   2.40556122   0.78191667
H    0.34688637   2.42993712   1.01172961
H   -0.60062971   2.04341221  -0.10393475
O    1.61091746  -0.45977631  -2.08118690
H    1.74445970  -0.47780223  -3.02885424
H    0.83520238   0.08744147  -1.95850574
O    2.04955478   2.11977743   1.57786476
H    2.49502966   1.50244125   0.99762341
H    2.70806995   2.78775166   1.76865272
O   -3.65915573  -1.16102426  -2.07329551
H   -3.89025956  -2.07329457  -2.24818328
H   -3.08250938  -1.20155743  -1.31036176
O   -1.53761215   0.36785606   2.24367669
H   -1.26388620   1.14717533   1.75997489
H   -2.23967190   0.67551991   2.81698891
O   -1.78293962  -1.11738427  -0.06273922
H   -1.00426145  -1.67330441  -0.09180726
H   -1.76225380  -0.72073025   0.80816235
O   -0.66778489   0.89309321  -1.51619533
H   -1.27860397   1.04800905  -2.23670417
H   -1.07171991   0.19123728  -1.00583604
O    3.20656949   0.20738576   0.07716757
H    2.75364993   0.01366493  -0.74354429
H    3.07166310  -0.57244552   0.61558681
O   -2.61038070   0.97137812  -3.41970589
H   -3.03797544   0.20508875  -3.03735110
H   -3.32827546   1.57237669  -3.61885329
O    2.37882253  -1.87109408   1.71414559
H    1.89848907  -1.25877880   2.27144409
H    2.82418474  -2.45536225   2.32775381
