36
Energy:   -474.88539322
O    1.88317352  -1.49576117   2.39067748
H    2.47951136  -1.02440965   1.80892086
H    1.24849203  -1.90557396   1.80291500
O   -1.56268499   0.02581235   1.44422337
H   -1.11363414  -0.78994633   1.22258636
H   -1.13071640   0.69084269   0.90815470
O    1.95497771   2.43977706   1.61999524
H    2.22704932   3.16319790   2.18468204
H    1.41081772   1.88818650   2.18201801
O   -0.17939985   1.66592802  -0.21247228
H    0.36185279   2.39592802   0.08815610
H   -0.67573971   2.02262168  -0.94911888
O   -0.05472578  -2.03178087   0.40496440
H    0.50379639  -1.50631233  -0.16789478
H   -0.70401944  -2.41893022  -0.18220250
O    3.33568724   0.22116711   0.73644871
H    2.94033879   1.04130718   1.03191734
H    4.27710227   0.35557618   0.84555316
O    1.38670276  -0.32164825  -1.14526430
H    0.85349106   0.41521365  -0.84701662
H    2.21296331  -0.22732739  -0.67131397
O   -0.53692438  -0.70382641  -3.12365750
H    0.28056043  -0.60982731  -2.63466405
H   -0.97854431   0.13869926  -3.01710152
O   -3.18115607  -0.18007787  -0.77409501
H   -2.82406848  -0.09971646   0.11036095
H   -2.91326924  -1.05252983  -1.06270559
O   -1.93912797   1.60018453  -2.38251519
H   -2.58554374   2.03576024  -2.93808004
H   -2.45561994   1.02088764  -1.82226257
O   -1.90617574  -2.49160123  -1.63494472
H   -2.19371738  -3.23286412  -2.16793721
H   -1.42021776  -1.93360115  -2.24216182
O    0.50692268   0.74096749   3.12593896
H    1.00174935  -0.07629316   3.06708789
H   -0.35005439   0.52985193   2.75546308
