36
Energy:   -478.81773361
O    2.13088821  -2.30986232   1.16237808
H    1.51976623  -2.79286988   0.60608188
H    2.67248237  -1.81313082   0.54905482
O   -3.15428412   0.87644419   1.00257910
H   -2.52374733   1.22265531   1.63407975
H   -4.00810423   1.03024650   1.40701441
O    0.08935948   3.32848353   0.60439212
H    0.78642159   2.68527663   0.47546916
H    0.54506413   4.16844142   0.65949083
O   -1.18814051   1.82068358   2.56156141
H   -0.60471077   1.06188525   2.56972708
H   -0.74141028   2.46094467   2.00772958
O    0.11642007  -3.28254327  -0.49984310
H   -0.29910153  -4.14367693  -0.45487111
H   -0.57888992  -2.66801449  -0.26504478
O    3.29019804  -0.73136341  -0.82269490
H    4.11675938  -0.82851089  -1.29554855
H    2.62089622  -1.00182033  -1.45128059
O    1.26721002  -1.58371273  -2.37803618
H    0.89113152  -2.28910452  -1.85152005
H    0.55876908  -0.94606704  -2.46607741
O   -0.98827877   0.03482787  -2.40873101
H   -1.47804319   0.03889310  -3.23113367
H   -1.19183896   0.87803571  -2.00401427
O    0.30866173  -0.41161309   1.84260664
H    0.97426731  -1.09910843   1.81912882
H   -0.35032428  -0.69382184   1.20831372
O   -1.82101405   2.20757677  -1.04966976
H   -1.16864306   2.69979536  -0.55130763
H   -2.40406293   1.84072960  -0.38505783
O   -1.58221157  -1.16792795  -0.01647335
H   -1.40547349  -0.77571133  -0.87155324
H   -2.26451321  -0.61526143   0.36465136
O    1.85929551   1.30527717   0.40743988
H    2.46596119   0.73678290  -0.06690479
H    1.36007521   0.71003229   0.96663080
