36
Energy:   -483.11603169
O   -2.25850629  -1.59842130   2.15555588
H   -1.35225501  -1.78524936   2.40057779
H   -2.75588923  -1.72109992   2.96412994
O   -2.04844023  -2.75112962  -0.34028322
H   -2.70428854  -3.43521584  -0.47489705
H   -2.23177532  -2.41196506   0.53583748
O   -0.34597246   2.03741880  -2.60525883
H   -0.56891759   2.58393518  -1.85170249
H   -0.80508788   1.21243772  -2.44761651
O    2.04843851   2.75112717   0.34028958
H    2.70428456   3.43521527   0.47490489
H    2.23177491   2.41196489  -0.53583173
O    1.13578337   0.42256282   1.52729428
H    1.56701399   1.25052104   1.31573533
H    0.20379831   0.59701171   1.39613297
O    1.48512773  -0.75975136  -0.89618649
H    1.90601275  -0.07825923  -1.42026293
H    1.45946518  -0.39933911  -0.00980266
O    2.25851138   1.59842651  -2.15555155
H    1.35226024   1.78525199  -2.40057595
H    2.75589892   1.72112579  -2.96411965
O    0.65655117  -3.22444261   0.16356638
H    1.09229298  -2.53314955  -0.33490610
H   -0.25723601  -3.18420171  -0.11857810
O   -1.13578807  -0.42256827  -1.52729905
H   -0.20380231  -0.59701532  -1.39614030
H   -1.56701676  -1.25052635  -1.31573562
O   -0.65655092   3.22444251  -0.16356767
H    0.25723564   3.18420041   0.11857866
H   -1.09229444   2.53314936   0.33490322
O   -1.48513066   0.75975084   0.89618020
H   -1.90601255   0.07825801   1.42025825
H   -1.45947017   0.39933830   0.00979643
O    0.34597672  -2.03742214   2.60525932
H    0.80508824  -1.21243953   2.44761367
H    0.56891971  -2.58393844   1.85170229
