36
Energy:   -480.44526226
O   -3.22676133  -0.33933585   0.60562555
H   -3.12591083  -0.57663556  -0.31619323
H   -2.51165091  -0.79450073   1.05023083
O    0.61266881   0.97968711  -1.31470302
H    1.44213999   1.31211342  -1.65778049
H   -0.05756220   1.47380398  -1.78679491
O   -0.09197601   1.47144192   1.24767517
H   -0.93514103   1.91760428   1.16865781
H    0.20870289   1.36496468   0.34518603
O    1.89810848  -1.93871175   2.16653269
H    2.17678511  -2.06891540   1.26010113
H    2.35755013  -2.61892995   2.65892321
O   -1.80130738   1.91584110  -2.13408860
H   -2.14287075   2.20689006  -1.28859655
H   -2.15833239   1.03489275  -2.24676065
O   -0.68742185  -1.17487566   1.49074771
H    0.08563854  -1.57181270   1.89205864
H   -0.50925312  -0.23451513   1.50523270
O   -2.53326422  -0.79611285  -2.03739483
H   -2.90721892  -1.39137974  -2.68704632
H   -1.68707156  -1.18440766  -1.81509554
O    2.54505032   0.74739310   1.82030454
H    2.37924078  -0.15304961   2.09948544
H    1.68257958   1.16255607   1.82427629
O    2.53340639  -2.05605510  -0.44341422
H    2.90848325  -1.20387630  -0.66554143
H    1.66232493  -2.04561417  -0.84007519
O    3.47455767   0.54243059  -0.72203306
H    4.40874190   0.75086987  -0.71282743
H    3.18605606   0.69361176   0.17804634
O   -2.64117766   2.28775228   0.51417125
H   -3.35452245   2.81024133   0.88074492
H   -2.94083403   1.38226701   0.59500648
O   -0.10351907  -1.60367536  -1.14208434
H    0.20895317  -0.71373528  -1.30517821
H   -0.34337779  -1.60776034  -0.21543286
