36
Energy:   -477.17627178
O    1.22636048   2.49753593  -0.73972192
H    0.94388220   1.89907624  -1.43130262
H    1.91376846   2.02012080  -0.27520398
O    0.28132222  -3.36663252  -1.73135930
H    1.13599178  -2.95042724  -1.61935505
H   -0.15013000  -3.26074918  -0.88349755
O    1.83896045  -1.24282270  -0.58553895
H    2.31146595  -0.58693356  -0.07291838
H    1.09910612  -1.49269518  -0.03199477
O   -1.94135072  -0.25514226  -1.01230966
H   -1.14401871   0.12386848  -1.38223449
H   -2.31300576  -0.77495988  -1.72497649
O    0.40329607   0.32724228  -2.27111860
H   -0.00043817  -0.26813193  -2.90259311
H    0.99306562  -0.22790294  -1.76100341
O    2.85232104   0.88554201   0.83811931
H    2.24401356   0.98864183   1.56994188
H    3.71425645   1.05995645   1.21611243
O   -0.53864878  -1.96012629   0.59680471
H   -0.66625711  -1.65232017   1.49413595
H   -1.10994566  -1.40279119   0.06838318
O   -2.44274212   1.06989792   1.37750054
H   -1.88229900   1.84199606   1.30004198
H   -2.44140016   0.68354395   0.50173764
O   -1.05215938  -1.74070162  -3.44042306
H   -0.61383165  -2.39282431  -2.89376352
H   -1.16983837  -2.17553002  -4.28499856
O   -0.52810561   3.05667358   1.22757674
H   -0.63035936   4.00704927   1.27819364
H    0.04922880   2.91705795   0.47696080
O   -1.03868033  -0.60041862   2.94764860
H   -1.53601884  -0.82329565   3.73454890
H   -1.61638829  -0.01673458   2.45591869
O    0.98026456   1.28099753   2.73148731
H    0.35530389   0.58086386   2.91981904
H    0.45071034   1.97726195   2.34287434
