36
Energy:   -474.72251471
O    1.85116007   2.19842820   1.01578949
H    1.50895138   1.61064468   1.68931424
H    2.58030124   2.65080698   1.43998101
O   -1.82279935   1.54841568   2.37389993
H   -2.27693204   2.06003126   3.04341083
H   -1.45187604   2.20301568   1.78216809
O   -0.69333288   3.17551422   0.56228189
H   -0.96935150   2.82137121  -0.28307502
H    0.23646923   2.95620350   0.62230437
O   -1.67500270   1.87089549  -1.68577333
H   -1.15563106   1.12213846  -1.97877137
H   -1.98662299   2.27787116  -2.49416398
O   -1.65005322  -1.82518515  -0.39717351
H   -2.21728768  -1.09948180  -0.13672858
H   -2.23793297  -2.57774427  -0.46262587
O    2.11411449  -2.04539024  -2.53896669
H    2.41582018  -1.31624696  -1.99715897
H    1.26965118  -1.75494578  -2.88357603
O    0.70073289   0.45809550   2.71113991
H   -0.21776846   0.72749902   2.71411633
H    0.69554587  -0.40776385   2.30310495
O    1.98764302  -3.71302137  -0.38990695
H    2.66160543  -4.38831247  -0.46729201
H    2.03687070  -3.22923668  -1.21438306
O    0.69479799  -1.76848550   1.03582679
H   -0.16852933  -1.84069180   0.62878375
H    1.17584422  -2.53140318   0.71522891
O   -3.05285524   0.37436135   0.20989365
H   -2.73062340   0.74009325   1.03368893
H   -2.72659954   0.97273024  -0.46222519
O   -0.24620257  -0.35778654  -2.25774927
H    0.52396237  -0.14092751  -1.73234470
H   -0.75002854  -0.95840845  -1.70852750
O    1.91758938   0.00571299  -0.63885701
H    2.01140888   0.83188094  -0.16464581
H    1.57827089  -0.60784228   0.01279069
