36
Energy:   -476.62257330
O   -0.00374905  -0.08757653   3.77029054
H    0.34868798   0.02672433   4.65287499
H    0.74416143   0.06211331   3.19196994
O   -0.66552469  -1.60480665   1.44611577
H   -1.44690562  -1.14282489   1.14239130
H   -0.64230003  -1.44273895   2.38920989
O    0.45629186   2.44833959   0.82031220
H   -0.31239038   2.38995272   1.38771897
H    0.96922928   1.66786437   1.03003937
O    1.54122646   0.00985601   1.45509305
H    2.18096714  -0.30112431   0.81458157
H    0.76916234  -0.53646720   1.30785244
O    0.64746542  -2.73863708  -0.73950882
H    1.49586591  -2.30527444  -0.64652884
H    0.17315469  -2.51176495   0.06036006
O    2.90265462  -1.09262215  -0.66655519
H    3.80350871  -1.27098031  -0.93652207
H    2.53788156  -0.56814923  -1.37936697
O    0.09284868   2.38897825  -1.83815627
H    0.22791746   2.46192818  -0.89334593
H    0.07649131   3.29420546  -2.14884577
O    1.66897309   0.26064021  -2.63984626
H    1.20984978   1.06904517  -2.41198870
H    0.97403437  -0.34656458  -2.89400047
O   -2.77278475  -0.04049695   0.66440794
H   -2.50341777   0.18575398  -0.22580765
H   -3.71806745  -0.17736354   0.60163844
O   -1.91685690   0.49612088  -1.82539887
H   -1.47908880  -0.23320828  -2.26434068
H   -1.29090276   1.21838195  -1.87786040
O   -0.40615695  -1.54917668  -2.91254533
H   -0.60077156  -2.21821653  -3.56885522
H   -0.08480563  -2.04076702  -2.15669870
O   -1.63320435   1.75530794   2.43916594
H   -1.17186332   1.15219054   3.02195724
H   -2.12308281   1.18706621   1.84473152
