36
Energy:   -492.98246756
O   -2.08786910   0.43148318  -2.51142754
H   -2.56645105   0.85436874  -1.79843458
H   -1.77143266  -0.38942465  -2.13431992
O    0.00142647  -1.89864652   2.69759319
H   -0.68956424  -1.32809593   2.36108804
H    0.14252625  -2.54072485   2.00185033
O    1.38994293   0.08285724  -1.31791217
H    1.13585866   0.74519183  -1.96055198
H    0.64237388  -0.51373010  -1.27975570
O   -0.70508098   3.18357202  -0.46943938
H   -0.36543389   2.94051528  -1.33071466
H   -0.08745706   2.79547536   0.15036181
O   -2.98300963   1.76509596  -0.24003849
H   -2.23530728   2.35984543  -0.29874214
H   -3.73353748   2.33793964  -0.08259037
O    0.08672059   1.98371523  -2.85111990
H    0.14306934   2.30938167  -3.74945059
H   -0.70542595   1.44649208  -2.83985039
O   -1.45490285   0.00121952   1.24858678
H   -0.67307047   0.55345811   1.24699971
H   -2.14316243   0.55860828   0.88547748
O    0.67745009  -3.37942432   0.43866763
H    1.49118553  -2.88130546   0.36156973
H    0.94504010  -4.29308830   0.33944286
O    2.79743737  -1.72405612   0.28957911
H    2.55060341  -1.08073908  -0.37483645
H    2.77673013  -1.23781103   1.11381741
O    2.21671308  -0.36663038   2.65021669
H    1.44844186  -0.92359605   2.77583680
H    2.65396929  -0.36528595   3.50170776
O   -0.80380701  -1.48301786  -0.92812149
H   -0.40507066  -2.28522550  -0.59092114
H   -1.11837501  -1.02531795  -0.14851287
O    0.86943335   1.39807021   0.99816846
H    1.14471382   0.99122142   0.17662930
H    1.41288930   0.98075517   1.66655131
