36
Energy:   -474.68414726
O   -0.10161987  -2.64195450   3.73778660
H   -0.35082624  -2.77387001   4.65251406
H   -0.00285603  -1.69389268   3.65028609
O   -1.62758317  -0.47324098  -2.68796094
H   -1.23152421  -1.03286038  -2.01998245
H   -0.88658978  -0.02497785  -3.09566281
O    0.52937219   1.12107177  -3.44535008
H    0.11911267   1.85584725  -2.98925364
H    0.74875505   1.46774974  -4.31017226
O    1.03260953  -3.11772711   1.32341623
H    1.33508272  -4.02468215   1.27678598
H    0.60728868  -3.05024260   2.17827287
O    2.35932309  -0.67312092   1.46866737
H    2.42887681  -0.40752758   0.55168628
H    2.07376247  -1.58604052   1.43310348
O    0.87127078   2.27405288   0.27336860
H    1.28900675   1.56399485  -0.21401840
H    1.48953879   2.48007019   0.97446302
O    0.30626870  -0.03280582   3.18584253
H   -0.36106870   0.23329143   2.55331989
H    1.10053103  -0.14545593   2.66364606
O   -1.21739524   0.67188448   0.96914642
H   -0.52535297   1.30837736   0.78974140
H   -1.93643292   0.93024375   0.39254677
O   -0.33055900  -1.49351437  -0.45414552
H    0.04480114  -2.15860362   0.12290985
H   -0.70370943  -0.84280780   0.14047331
O   -2.82667222   1.39984981  -1.17145402
H   -3.75888090   1.46298330  -1.37937946
H   -2.49822934   0.71040082  -1.74853047
O   -0.67574748   2.99264826  -1.93042918
H   -0.14424982   2.98065054  -1.13444039
H   -1.50797594   2.59841204  -1.66926747
O    1.73393293   0.12389114  -1.15087954
H    1.04816550  -0.51769761  -0.96562633
H    1.54052384   0.43312858  -2.03586371
