36
Energy:   -476.12103884
O    1.17036197  -0.76806171   3.25157140
H    2.06606937  -0.82258847   2.91845441
H    0.64793538  -1.25813991   2.61664961
O   -1.73377879   0.82354864   0.82234663
H   -1.31224332   1.13217509   1.62439987
H   -1.48881893   1.46864481   0.15896329
O    1.41677146   2.09672371   0.39520781
H    0.69769845   2.38084821  -0.16909630
H    1.02743198   2.03531773   1.26748983
O   -0.85250641   2.56889009  -1.12130091
H   -1.20396995   3.41196178  -1.40754442
H   -0.93063315   2.00305971  -1.88939207
O   -0.27292186  -1.49143353   0.97949561
H   -0.84219767  -0.72347339   0.93056588
H   -0.63735799  -2.10156291   0.33827778
O    3.52561299  -0.82083545   1.83419340
H    4.34568668  -0.34497206   1.70279700
H    3.06830107  -0.74675262   0.99657213
O    1.88785018  -0.46757187  -0.32390487
H    1.16776850  -0.87496576   0.15749355
H    1.80187712   0.46752545  -0.13834224
O    0.53635724  -1.32586556  -2.56813186
H    1.15286097  -1.00289662  -1.91098191
H    0.03851490  -0.55176228  -2.83109378
O   -2.88229560  -0.56824424  -1.36564501
H   -2.74642411  -0.16554403  -0.50797180
H   -2.48968182  -1.43770985  -1.28744132
O   -1.26944479   0.71926655  -3.08715911
H   -1.91276543   0.26231824  -2.54533936
H   -1.63914779   0.69592873  -3.96977277
O   -1.25680796  -2.81434835  -1.22155588
H   -1.24050815  -3.72918318  -1.50270244
H   -0.59406862  -2.38514722  -1.76266104
O    0.05660537   1.62900988   2.78577847
H    0.47369197   0.80071737   3.02284836
H    0.04626786   2.13388003   3.59893966
