36
Energy:   -474.69809280
O    1.74872842  -1.16626826   2.73904443
H    1.21993262  -1.69746531   2.14369870
H    2.46487391  -0.83762495   2.19557312
O   -1.26245170   0.26412783   1.27079613
H   -0.80295146  -0.56065170   1.11322043
H   -0.86248556   0.61331133   2.06724439
O    2.02059597   2.36733330   1.37186792
H    1.41289247   2.39050066   0.63268488
H    1.49038433   2.06456392   2.10905050
O    0.10406960   1.73006500  -0.56935908
H   -0.47978880   1.74612290  -1.32770159
H   -0.40235358   1.29125289   0.11416951
O    0.12941066  -1.95014225   0.58124892
H    0.75029860  -1.53436608  -0.01696525
H   -0.53200090  -2.33869417   0.00871595
O    3.39469893   0.03083447   0.92460081
H    3.09151642   0.92611747   1.07553310
H    3.01648819  -0.21132142   0.07929080
O    1.59147797  -0.47048861  -1.19050675
H    1.18303339   0.37338692  -0.99742915
H    1.15733179  -0.77008358  -1.98925063
O   -0.25799490  -1.02734882  -3.20964870
H   -0.16505088  -1.16838239  -4.15182851
H   -0.75102387  -0.21012952  -3.13680029
O   -3.19535715  -0.07196017  -0.63399264
H   -2.63567998   0.07914399   0.12769027
H   -4.07473803  -0.17232899  -0.26951054
O   -1.74953661   1.21731499  -2.58638143
H   -2.35821489   0.81738361  -1.96525544
H   -2.26604255   1.89105657  -3.02856436
O   -1.78634806  -2.38593693  -1.32074231
H   -1.26817566  -2.06362359  -2.05819964
H   -2.39918439  -1.67593362  -1.12953880
O    0.43064888   1.10697267   3.27820722
H    0.91853142   0.28945166   3.17890018
H    0.48669739   1.30793326   4.21239417
