36
Energy:   -475.30791949
O   -1.39425206  -0.83124347   0.87571508
H   -0.65591016  -1.37463906   0.60038923
H   -1.37069574  -0.07767777   0.28595607
O   -0.90197604   3.02211171   1.19675339
H   -1.36156202   3.76361048   1.59069774
H   -0.92159291   2.34229750   1.87032570
O    0.71790284  -1.29101008  -2.94474659
H    0.95517787  -1.61321311  -3.81429683
H   -0.21505144  -1.08732183  -3.01061970
O    0.33812212  -2.50084196  -0.45916142
H    0.59170090  -2.14216815  -1.30962174
H   -0.45592454  -3.00448836  -0.63822022
O   -2.56375522  -2.57195255  -0.84398525
H   -2.34954878  -1.96150316  -0.13850740
H   -3.41008777  -2.94177531  -0.59262058
O   -1.89425075  -0.69651055  -2.78323350
H   -2.24836321  -1.37491649  -2.20825386
H   -1.82432877   0.07828398  -2.22552731
O    1.56645352   0.72190946  -1.23495828
H    1.42581895   0.17897620  -2.01063684
H    2.00851631   0.14310846  -0.61382888
O    1.82025731   2.57837765   0.87243354
H    1.86245573   2.14389496   0.02056739
H    0.91969945   2.89664334   0.93515785
O   -0.78026846   0.93472729   2.89434096
H   -1.08718691   0.21577498   2.34194573
H    0.15814428   0.77564075   2.99585381
O   -1.10541775   1.20400750  -0.87350209
H   -0.16669193   1.09981935  -1.02897080
H   -1.16938615   1.95827641  -0.28765372
O    1.95021848   0.60448515   2.70620666
H    1.98745689   1.34017346   2.09497196
H    2.64847846   0.78077349   3.33675188
O    2.54421840  -1.03468589   0.56190967
H    1.88770320  -1.72251400   0.45185452
H    2.33160782  -0.63253730   1.40411220
