36
Energy:   -474.92303451
O    1.78885703   1.36934712   2.21706871
H    2.04599955   0.79153468   1.49856863
H    1.36551267   2.11264845   1.78751714
O   -1.89046051   1.79766403   1.92047954
H   -2.24056163   1.21958422   1.24262647
H   -1.45610351   1.20860267   2.53738517
O    0.16362650   3.18819918   0.87755461
H    0.03979176   4.11963679   1.06009439
H   -0.61554484   2.76688467   1.24034650
O    0.87199494   1.73626086  -1.36689520
H    0.05279966   1.46422076  -1.78059210
H    0.60267587   2.34308321  -0.67735497
O   -0.41823235  -1.37314434   0.98981021
H   -1.18457874  -0.94552283   0.60759968
H   -0.39034297  -1.05411117   1.89184783
O    2.34601298  -2.30438629  -1.73840731
H    3.27519055  -2.52932214  -1.78599687
H    2.30571231  -1.58227138  -1.11138438
O    1.91313830  -0.31187107   0.03999652
H    1.10165667  -0.70223498   0.36456611
H    1.62538524   0.40861618  -0.52065323
O   -1.41996074   0.66516265  -2.47477858
H   -1.70192608   1.01136307  -3.32146192
H   -0.99673823  -0.16730745  -2.68479785
O   -2.54483884  -0.00621846  -0.08028100
H   -2.21975698   0.27291833  -0.93622275
H   -3.37285394  -0.44729212  -0.27022011
O   -0.19453208  -1.67890019  -2.92846449
H    0.76260086  -1.68860473  -2.93431241
H   -0.43768265  -2.36428214  -2.30608099
O   -0.08393818  -3.44639202  -0.83739218
H    0.82533503  -3.28419603  -1.08868196
H   -0.22936119  -2.87692641  -0.08188380
O   -0.26118991   0.05428335   3.34802965
H    0.51777070   0.52164223   3.04632136
H   -0.09315435  -0.11939231   4.27422221
