36
Energy:   -476.00566292
O   -2.14917298   2.64466882   0.83726067
H   -2.75357744   3.31892181   1.14759917
H   -2.50071204   1.82686802   1.18918964
O   -3.05339019   0.24614290   1.72705473
H   -3.81216921  -0.29181012   1.50101757
H   -2.30997454  -0.35482480   1.67803596
O   -1.54435748   1.81523715  -1.72595147
H   -1.84409051   2.17784835  -0.89234181
H   -0.64469813   2.12978424  -1.81486170
O    0.60698452   2.57022997   1.04976747
H   -0.34324181   2.68249605   1.02334596
H    0.87704050   2.59377466   0.13175480
O    1.23911340   0.29337375   2.31911416
H    1.06043219   1.13018763   1.89010669
H    1.53021987   0.53218464   3.19914724
O    0.60446253  -2.98458103  -2.14613625
H    1.31485673  -2.39743774  -2.40466028
H   -0.16754717  -2.42071192  -2.09833985
O    1.67647054  -0.27491831  -1.84587790
H    2.10950337  -0.58773493  -1.05161084
H    0.74868088  -0.46203588  -1.70296106
O    1.17728142   2.37493189  -1.65402835
H    1.45573661   1.46571655  -1.76367333
H    1.73899510   2.87138899  -2.24920894
O    0.79590943  -3.39424166   0.51249599
H    0.95071859  -4.32028780   0.69878748
H    0.72658182  -3.34961349  -0.44114643
O    2.59527146  -1.27787165   0.49975997
H    2.25296136  -0.70612918   1.18690348
H    2.09244866  -2.08750357   0.58862623
O   -0.96285167  -0.81070561  -1.38022440
H   -1.30460194   0.06543939  -1.55857390
H   -0.99976216  -0.89331544  -0.42731040
O   -0.79223560  -1.26553658   1.33077962
H   -0.35807583  -2.10229813   1.16474572
H   -0.11886516  -0.72308749   1.74133179
