36
Energy:   -475.29581579
O   -1.59028367   2.00696481  -1.07824844
H   -2.05630522   1.31918193  -1.55365403
H   -1.85216791   2.81869689  -1.51269004
O    0.99526657   1.08449683  -1.38752186
H    1.06318455   0.33531783  -0.79561830
H    0.11143482   1.42337739  -1.24527823
O    1.28509238  -1.05499142   0.29759751
H    1.99461876  -0.76482466   0.87084041
H    0.50831154  -1.05221316   0.85691465
O    0.74864574   0.09091840   3.81890925
H    0.30538672   0.93395463   3.91400499
H    0.12947057  -0.45209366   3.33106516
O   -2.04473473  -1.88672388  -0.46726682
H   -1.32155806  -2.35404188  -0.88543095
H   -2.36877417  -1.29163572  -1.14335880
O   -0.92764769  -0.89596125   1.82769100
H   -1.04147263   0.05010752   1.73697376
H   -1.48737159  -1.27129516   1.14793702
O    1.75094659   2.36069403   0.95628255
H    1.68445624   2.07891700   0.04391607
H    2.28909382   1.68959358   1.37610820
O   -2.56598777  -0.10084591  -2.52875096
H   -3.18756714  -0.31147719  -3.22553314
H   -1.70761563  -0.29072257  -2.90740114
O   -0.04714734  -0.62217839  -3.29691005
H    0.46677229   0.02652153  -2.81596633
H    0.15616799  -1.45420393  -2.86955982
O    0.34545666  -2.78189676  -1.59760672
H    0.78642069  -3.63143165  -1.60615332
H    0.80634581  -2.27901905  -0.92609570
O    2.90069619   0.15299874   2.18690244
H    2.20573330   0.11410424   2.84397599
H    3.71076908   0.06252525   2.68872743
O   -0.84334972   1.79889980   1.57899004
H    0.05950645   2.09348627   1.45940161
H   -1.26559038   1.97159347   0.73749045
