24
Energy:    -94.54326059
O    0.21000640   2.26613765  -0.36814885
H   -0.50485246   1.95993807  -0.94576630
C    1.29490983   2.65527726  -1.19524539
H    2.09119948   2.99738535  -0.52863452
H    1.03710752   3.48434779  -1.87270931
H    1.68920245   1.82295330  -1.79902307
O   -1.76371663   1.08600224  -2.03244658
H   -2.12633073   0.95517716  -2.92116424
C   -2.02979777  -0.08804426  -1.28188051
H   -1.61476241   0.07637114  -0.28378311
H   -1.54994558  -0.98301765  -1.70795778
H   -3.10721929  -0.28917164  -1.17469850
O   -0.22872849  -2.39836914   0.39850972
H    0.15351196  -1.57039672   0.72527752
C    0.80260735  -3.37236605   0.38401163
H    0.35488551  -4.29850144   0.01346663
H    1.21530359  -3.56965303   1.38577856
H    1.63309086  -3.10237205  -0.28694120
O    0.81952278   0.07044363   1.28177504
H    0.70575966   0.88120085   0.76393919
C    0.32617453   0.32123144   2.58800885
H    0.46196418  -0.60204742   3.15774782
H   -0.74585622   0.57313189   2.59658584
H    0.87596349   1.12434163   3.10329853
