24
Energy:    -95.36345367
O   -1.47717208   0.79419131   0.25752191
H   -0.82740179   1.18648623   0.85945758
C   -2.49081587   0.19555401   1.04916162
H   -3.21422789  -0.24138335   0.35544266
H   -3.02168173   0.92376998   1.68213893
H   -2.10649151  -0.61023657   1.69396674
O    0.67267264   1.09841381   2.18049041
H    0.85599827   0.21533810   1.82694792
C    1.84749049   1.87774686   2.02244989
H    1.62349881   2.86905137   2.42572187
H    2.14026504   1.99653791   0.96748587
H    2.70649989   1.46947257   2.57760057
O   -0.62111073  -0.56374804  -2.07134963
H   -1.05561574  -0.02983286  -1.38976087
C   -0.99707889  -0.03835178  -3.33433834
H   -0.49898181  -0.65127155  -4.09045597
H   -0.67424675   1.00522961  -3.47396150
H   -2.08261806  -0.09293557  -3.51154624
O    0.89984204  -1.29551588   0.65717972
H    0.10057199  -1.22764969   0.11405465
C    1.84766581  -2.06438069  -0.06601513
H    2.74159258  -2.13091186   0.56004696
H    2.13397173  -1.59741703  -1.02139526
H    1.49737358  -3.08815687  -0.27084436
