24
Energy:    -90.26795309
O   -1.09539450  -0.16749403  -1.66928922
H   -0.80299701   0.58131932  -1.12872881
C   -2.49831549  -0.05023670  -1.84420972
H   -2.81096149  -0.90141762  -2.45513420
H   -2.78536257   0.87262717  -2.37213358
H   -3.05050478  -0.09210800  -0.89231103
O    1.84045279  -0.09339376   0.73247198
H    1.58799364  -0.78319776   1.36402412
C    2.16691010  -0.72999057  -0.49256023
H    2.44889909   0.06131064  -1.19242436
H    1.31727576  -1.28131768  -0.92492264
H    3.01844791  -1.42195357  -0.39849695
O   -0.04539766   1.85066133   0.05266839
H    0.66388497   1.27364062   0.37265044
C    0.55824770   3.01293423  -0.49255426
H   -0.25470485   3.65178287  -0.84817453
H    1.21573234   2.78953514  -1.34729641
H    1.13756545   3.58055593   0.25241143
O    0.63128385  -2.12340780   2.46424410
H    0.57367846  -2.68109033   3.25424099
C   -0.69010448  -1.89502891   2.00130811
H   -0.60675622  -1.26540595   1.11130070
H   -1.31296885  -1.36397140   2.73805448
H   -1.20690417  -2.82435317   1.71486120
