24
Energy:    -90.46025805
O   -0.54637715  -2.11920168  -0.70370659
H   -0.19830037  -1.81320065  -1.55437057
C    0.39890376  -3.02129689  -0.15125567
H   -0.00888522  -3.35619583   0.80636432
H    1.37553719  -2.54963840   0.03980122
H    0.55933908  -3.90887205  -0.78311655
O    0.35521070  -0.62809715  -3.00748773
H    0.08655233  -0.36085152  -3.89901772
C    1.03800037   0.46650992  -2.41743062
H    1.33351713   0.14839682  -1.41395710
H    0.40281350   1.36071337  -2.31886517
H    1.94914210   0.74657770  -2.96893776
O   -0.01204206   2.54962864   0.60056951
H   -0.32717870   1.64543642   0.74736397
C    0.84880149   2.88549810   1.67698665
H    1.19462711   3.90679861   1.49578202
H    1.73259684   2.23102384   1.73483599
H    0.33765027   2.86614235   2.65224412
O   -0.69986219  -0.11509037   1.26681211
H   -0.68187469  -0.79956432   0.58154200
C   -2.01924270  -0.05954101   1.78515863
H   -2.02168753   0.71628933   2.55559131
H   -2.33259153  -1.00604935   2.25282496
H   -2.76464973   0.21458411   1.02226866
