24
Energy:    -90.18483775
O    0.56590881  -0.46983153   1.60101649
H   -0.36135609  -0.33323721   1.35617968
C    0.61936845  -1.58056968   2.48188914
H    1.67069164  -1.72042344   2.74768167
H    0.25844521  -2.51073955   2.01573922
H    0.05160597  -1.41437121   3.41076005
O   -1.98733216   2.56152935  -0.71978299
H   -2.42192428   3.42674550  -0.75066952
C   -0.58870414   2.77870898  -0.81573325
H   -0.11466931   1.79409997  -0.77938383
H   -0.19334509   3.37894865   0.01864129
H   -0.29744145   3.26313688  -1.76086445
O    1.44932843  -1.11525114  -1.05743858
H    1.19215280  -0.88293925  -0.15283085
C    2.82585914  -0.80620561  -1.20639444
H    3.09890262  -1.07398838  -2.23071121
H    3.46745081  -1.38138583  -0.52060643
H    3.03888367   0.26499791  -1.06525304
O   -1.98465983  -0.06613221   0.47054920
H   -2.09497527   0.81130423   0.07512654
C   -2.03983880  -1.02060025  -0.57753468
H   -1.91392645  -2.00312213  -0.11462861
H   -1.23554415  -0.88635884  -1.31771485
H   -3.00488055  -1.01431522  -1.10803656
