24
Energy:    -95.72533987
O    1.96481616  -0.49994227  -0.94824696
H    1.16077043  -0.22670300  -1.41437359
C    1.93079643  -1.91264465  -0.82315332
H    2.84350933  -2.20342104  -0.29600112
H    1.92115859  -2.42572076  -1.79754408
H    1.06950904  -2.26688366  -0.23538117
O    0.96669087   0.89793414   1.24433998
H    1.51890102   0.40646547   0.61828425
C    1.57286303   2.16372931   1.45134644
H    0.93808651   2.70410332   2.15883488
H    1.63882517   2.75978211   0.52768666
H    2.58105755   2.08616370   1.88758574
O   -1.75059796   0.14678377   1.50659396
H   -0.82410376   0.38938639   1.65211283
C   -1.81337985  -1.26619104   1.39661934
H   -2.86370170  -1.52220416   1.23301466
H   -1.47529283  -1.77928776   2.31051553
H   -1.23120337  -1.65275817   0.54549437
O   -0.69479640   0.52378110  -1.40578375
H   -0.88233373   0.67303046  -0.46717965
C   -1.90410982   0.71580128  -2.12217964
H   -1.67487000   0.54385242  -3.17734214
H   -2.30044086   1.73829582  -2.02116510
H   -2.69215384   0.00664725  -1.82407813
