24
Energy:    -98.01168645
O    1.57306908  -0.88818720   0.70357849
H    0.65777866  -1.17593175   0.83725640
C    2.19189678  -1.81525135  -0.17399665
H    3.22193657  -1.47616179  -0.31371603
H    1.70795744  -1.85327771  -1.16249755
H    2.22147742  -2.83614937   0.23791298
O    0.99282357   1.63356885  -0.78091633
H    1.29765056   0.87984643  -0.25422258
C    1.79013097   2.75362098  -0.43117654
H    1.43342674   3.59352568  -1.03351149
H    2.85772266   2.60213466  -0.65495592
H    1.69339648   3.02955253   0.63055862
O   -1.13773621  -1.57587705   0.95342074
H   -1.72655964  -0.99537903   0.44871063
C   -1.39932188  -1.36162003   2.33117277
H   -0.72769640  -2.02315534   2.88504590
H   -2.43413439  -1.61313641   2.61167219
H   -1.19561485  -0.32638456   2.64671721
O   -2.09768596   0.83660769  -0.51433613
H   -1.22752076   1.26203570  -0.49862592
C   -2.35323918   0.42849083  -1.84875247
H   -3.33702701  -0.04863242  -1.84840883
H   -1.61853188  -0.30436884  -2.21739758
H   -2.38419878   1.27412951  -2.55353191
