24
Energy:    -92.19637403
O    1.25419017   1.41414019   0.29769403
H    1.53082621   0.49622156   0.43669467
C    2.42644182   2.19915401   0.14898913
H    2.09661747   3.22991306  -0.00669283
H    3.03153345   1.89926753  -0.72090142
H    3.06888544   2.17766005   1.04318236
O   -1.60530817   1.30741503  -0.27706742
H   -0.66263144   1.33265319  -0.05537643
C   -2.19845649   2.49240618   0.22939562
H   -3.25991770   2.44763798  -0.02902478
H   -1.77596999   3.40489285  -0.21965956
H   -2.11689252   2.57423878   1.32457966
O    1.59277358  -1.41033800   0.01193213
H    0.70249364  -1.79031852   0.04987545
C    2.27505730  -2.01984413  -1.07228416
H    3.27585689  -1.58042955  -1.10057211
H    1.79013395  -1.82727293  -2.04210012
H    2.38367683  -3.10869145  -0.94822512
O   -1.24718712  -1.92751006   0.34579257
H   -1.34297875  -0.98526723   0.14225959
C   -2.54605047  -2.45526823   0.56249309
H   -2.41968376  -3.51712744   0.79046603
H   -3.19270739  -2.37123633  -0.32494750
H   -3.06070297  -1.98229654   1.41349715
