24
Energy:    -94.42715165
O    1.31075805   1.98055449   1.13219562
H    0.47563266   1.70298865   0.72729308
C    1.00657646   2.56576002   2.38819794
H    1.95822979   2.87271156   2.83048958
H    0.52065726   1.85977961   3.07975526
H    0.36832213   3.45865185   2.29790445
O   -1.08045649   1.07848779  -0.06495835
H   -1.24867700   0.15426573  -0.30147205
C   -1.30515338   1.86682905  -1.22278525
H   -1.11123545   2.90469451  -0.93867908
H   -2.34215775   1.80079100  -1.58752931
H   -0.62807211   1.60759447  -2.05172176
O    1.51039825  -2.33003974  -0.30056199
H    2.10841754  -2.93518400   0.16268376
C    2.06755608  -1.02794529  -0.21895944
H    1.38147300  -0.35909205  -0.74565723
H    3.05373150  -0.95623588  -0.70382346
H    2.16354075  -0.67072230   0.81832356
O   -1.18155165  -1.62746956  -0.83895523
H   -0.27073269  -1.92604650  -0.69865594
C   -2.00450450  -2.78008065  -0.92123548
H   -3.02669193  -2.42563013  -1.07929523
H   -1.99008349  -3.37969592   0.00236124
H   -1.73597703  -3.43496671  -1.76491468
