24
Energy:    -94.18821408
O   -0.02829868   1.64247153   0.53420735
H    0.73737984   1.06741051   0.68071504
C   -0.26697126   2.35614390   1.73680491
H   -1.13244101   2.99887679   1.55420770
H    0.58002157   2.99797998   2.02564211
H   -0.50599586   1.69418621   2.58383301
O    0.56838613  -2.72034296   1.01593072
H    0.27771751  -3.33956055   1.70186410
C   -0.53630737  -2.47670177   0.15987872
H   -0.19148183  -1.77747050  -0.60670863
H   -1.38740560  -2.01531793   0.68479213
H   -0.89228042  -3.38841365  -0.34494002
O   -2.00554721   0.30420438  -0.97933628
H   -1.39238531   0.83822299  -0.45276256
C   -2.26995217   1.01133120  -2.18041723
H   -2.96203011   0.39581983  -2.76150163
H   -1.36499737   1.17275130  -2.78686402
H   -2.74788806   1.98744753  -2.00278971
O    2.00122590  -0.28907187   0.82186102
H    1.54685935  -1.14131102   0.89711219
C    2.81911367  -0.33812749  -0.33623523
H    3.32349082   0.62946914  -0.40584585
H    2.23919557  -0.48807546  -1.26034992
H    3.59059191  -1.12192210  -0.27909791
