24
Energy:    -94.91912524
O    2.07780608  -0.03807455   0.83152493
H    2.00403797  -0.08399386  -0.13329264
C    1.71547669  -1.30715706   1.35179486
H    1.80410520  -1.23777967   2.43936875
H    2.38026797  -2.11411567   1.00589360
H    0.67739427  -1.58488690   1.11090408
O   -0.20906546   1.56859387   0.88028161
H    0.62099572   1.10655839   1.06987307
C    0.04020560   2.96132176   0.98375487
H   -0.90495441   3.46657346   0.76724047
H    0.78991971   3.31418209   0.25836141
H    0.36450584   3.26148652   1.99247079
O   -1.96581055   0.01307453  -0.63925656
H   -1.47795044   0.55250349   0.00061231
C   -2.82439525  -0.84889132   0.09038784
H   -3.36621925  -1.44917799  -0.64552511
H   -3.56387789  -0.30056875   0.69477604
H   -2.27459034  -1.53557705   0.75292434
O    0.93579200   0.04268470  -1.75192660
H    0.05288439   0.43929871  -1.71199218
C    0.79097340  -1.28201035  -2.23849045
H    1.79466949  -1.71396278  -2.27717447
H    0.36445620  -1.31808763  -3.25316223
H    0.17337304  -1.91199393  -1.57934873
