24
Energy:    -90.20980593
O   -0.65308019   1.37524085   0.69222266
H   -1.00922343   0.48249072   0.81298063
C   -1.70957542   2.29443606   0.91900840
H   -1.29112026   3.29481270   0.77891181
H   -2.11395485   2.23366778   1.94153557
H   -2.54155886   2.16981019   0.20834022
O    1.05183149  -2.54464233   1.26423656
H    1.60300121  -3.33527528   1.36188261
C    1.91355045  -1.41775391   1.25440399
H    1.27647511  -0.53606453   1.14375115
H    2.62419297  -1.43317969   0.41325798
H    2.48469414  -1.31100444   2.18991282
O    0.46508296   0.80205699  -1.89239847
H    0.08342399   1.04026217  -1.03448355
C    1.65595064   1.55507599  -2.05771734
H    2.07275752   1.27456216  -3.02883485
H    2.40966065   1.33368280  -1.28591192
H    1.47467875   2.64129233  -2.06492109
O   -1.46163472  -1.30076753   0.75837862
H   -0.67858762  -1.82100783   0.99206763
C   -1.82446363  -1.64207335  -0.56992831
H   -2.70794893  -1.04717515  -0.81698103
H   -2.08780988  -2.70582508  -0.67882433
H   -1.03634209  -1.40262163  -1.30088977
