24
Energy:    -96.11449993
O    0.11669587   1.43589649   0.21795223
H    0.49361563   0.77673604  -0.38359767
C    0.51922513   2.71675266  -0.24020871
H    0.08610119   3.44718042   0.44853227
H    0.14971890   2.94159471  -1.25297153
H    1.61274734   2.84685390  -0.23245152
O    0.69254021  -1.65632364   0.26071557
H    0.13825208  -1.44108543   1.02547727
C    1.97939314  -2.00412714   0.74607734
H    2.59075382  -2.24359558  -0.12820991
H    1.96162516  -2.88805136   1.40268956
H    2.46697364  -1.17857180   1.28783462
O   -0.90527061  -0.43203899   2.19204247
H   -0.61462150   0.39734360   1.78452448
C   -2.31950758  -0.48694347   2.09481560
H   -2.63001582  -1.42719221   2.55849882
H   -2.67440230  -0.48687781   1.05230561
H   -2.81492505   0.33785505   2.63058259
O    0.90558482  -0.17015871  -2.24618490
H    0.85234893  -0.92433172  -1.64053459
C   -0.39226219   0.04946738  -2.77523243
H   -0.31419196   0.90214258  -3.45518481
H   -1.13160267   0.29907815  -1.99815622
H   -0.76877620  -0.81160311  -3.34931617
