24
Energy:   -108.84194137
O    1.50486455  -0.93981893   0.90192774
H    0.57997028  -1.22765303   0.91398580
C    2.27517950  -1.99000425   0.33955825
H    3.31405307  -1.64913680   0.33353413
H    1.98578691  -2.22136534  -0.69750554
H    2.22387140  -2.91822196   0.92994515
O    1.22080271   1.49514609  -0.48526339
H    1.48352900   0.69125674  -0.01286517
C    1.53534439   2.60324091   0.34282064
H    1.23297939   3.50022653  -0.20442464
H    2.61262383   2.68131967   0.55764626
H    0.99047049   2.58723503   1.29970809
O   -1.25561478  -1.41835918   0.61073114
H   -1.48292267  -0.69256555   0.01074948
C   -2.11285070  -1.32978995   1.73760107
H   -1.84328175  -2.15446271   2.40298263
H   -3.17619700  -1.43859037   1.47258322
H   -1.98802070  -0.38756722   2.29384844
O   -1.47001634   0.86299680  -1.02740439
H   -0.58053571   1.22892329  -0.91188257
C   -1.69768310   0.71656269  -2.41997707
H   -2.70376540   0.30338554  -2.53208533
H   -0.98826594   0.02170953  -2.89609019
H   -1.66032144   1.67553245  -2.96012375
