24
Energy:    -90.13700375
O   -1.88508182  -0.96576767   0.04908354
H   -2.12963148  -0.46016292  -0.74020891
C   -2.12567265  -0.14264134   1.17917773
H   -1.84493723  -0.72749440   2.05930256
H   -3.18499224   0.14058135   1.28117895
H   -1.51929808   0.77662082   1.17252421
O   -2.25932121   0.53129058  -2.38581104
H   -2.76160674   0.61383061  -3.21001955
C   -0.91007244   0.86605300  -2.66864605
H   -0.35856209   0.76784742  -1.72966937
H   -0.79468760   1.90143464  -3.02564539
H   -0.45015127   0.19064530  -3.40693752
O    1.14408152   1.24637372   1.37576214
H    1.12643570   0.40566786   0.89479898
C    2.47744989   1.73001901   1.34837963
H    2.47931661   2.67727756   1.89444094
H    2.83835902   1.92447738   0.32627011
H    3.18707965   1.04900121   1.84377613
O    0.92922330  -1.23597387  -0.03245408
H   -0.03834779  -1.28248883  -0.04056618
C    1.40398669  -2.29084385   0.78875406
H    2.49530423  -2.22370715   0.78677712
H    1.12245338  -3.28534611   0.40864672
H    1.05867264  -2.20669433   1.83108529
