24
Energy:    -90.40380181
O   -0.89899670   1.30209720  -0.11063480
H    0.06928895   1.28284339  -0.13243983
C   -1.29192678   2.53213218   0.47686302
H   -2.38516919   2.53723017   0.49360368
H   -0.95528773   3.40651835  -0.10184269
H   -0.93413095   2.64220008   1.51254856
O   -1.07239616  -1.07706738   1.45671767
H   -1.12245059  -0.25829576   0.94142080
C   -2.39934291  -1.52429612   1.68416557
H   -2.32448609  -2.44716446   2.26571152
H   -2.93731972  -1.75178620   0.75056686
H   -2.99765197  -0.80350372   2.26318363
O    1.91250315   1.04171915  -0.22152052
H    2.10792510   0.50684201  -1.00519136
C    2.16271267   0.23879704   0.92095270
H    1.93758532   0.85658672   1.79453085
H    3.21332581  -0.08352112   0.99236954
H    1.52138436  -0.65556330   0.96088920
O    2.02618090  -0.75540645  -2.46747071
H    2.38306498  -1.00216406  -3.33359294
C    0.75849901  -1.37745330  -2.33118379
H    0.37084691  -1.08901928  -1.35035920
H    0.81833332  -2.47657224  -2.36486993
H    0.03750830  -1.04515291  -3.09441781
