24
Energy:    -91.48044745
O   -1.25166988   1.77495862   0.13348067
H   -2.00330126   1.17499803   0.01720157
C   -0.71781064   2.05020929  -1.15172949
H    0.12770262   2.72716171  -1.00230409
H   -1.44163436   2.54926786  -1.81490149
H   -0.34612821   1.14683334  -1.66019914
O    1.31457253  -1.05456168  -1.09370776
H    1.15195863  -0.69768581  -0.20792020
C    2.40169022  -1.96112381  -0.99961209
H    2.57138672  -2.35368323  -2.00588512
H    2.18977120  -2.81146597  -0.33268941
H    3.33100373  -1.47699828  -0.66082570
O   -3.29856591  -0.18996278  -0.08756649
H   -4.02746384  -0.34166220   0.53220635
C   -2.43755329  -1.31559709  -0.02323579
H   -1.62228701  -1.12815734  -0.72729007
H   -2.93727899  -2.25077534  -0.32071385
H   -1.99892413  -1.45886772   0.97669187
O    0.74266577   0.22621869   1.37270606
H    0.06973962   0.84215602   1.04679984
C    1.81563410   0.99588199   1.89125319
H    2.56451048   0.28657630   2.25395805
H    1.51205706   1.63364657   2.73616422
H    2.28992486   1.63263285   1.12811889
