24
Energy:    -92.19713237
O    1.40297279  -1.67049557   0.46319951
H    0.84480425  -1.24716929  -0.20587897
C    1.44526134  -3.05847641   0.17293299
H    2.07796933  -3.51987427   0.93600430
H    1.88709914  -3.27354098  -0.81261453
H    0.45265589  -3.53315099   0.21979254
O   -1.32687300   1.83995691  -0.53641615
H   -1.07146577   1.66767671   0.38201183
C   -0.83357685   3.12305827  -0.88690664
H   -1.13007157   3.30105360  -1.92415962
H    0.26437265   3.18665238  -0.82998550
H   -1.26079615   3.92679410  -0.26701170
O   -0.41671957  -0.70756173  -1.45242863
H   -0.77557136   0.18741766  -1.35936654
C   -1.51017976  -1.61136096  -1.45748213
H   -1.08814827  -2.61447649  -1.56299918
H   -2.19916030  -1.44056410  -2.29945099
H   -2.09059387  -1.58185117  -0.52205390
O   -0.17567222   0.89565600   1.93970010
H   -0.13051290  -0.02616696   2.23402362
C    1.14445780   1.41501678   1.94710927
H    1.07524766   2.45382246   1.61307646
H    1.81616922   0.87900737   1.25843299
H    1.59833150   1.40857666   2.95047088
