24
Energy:    -91.00723132
O    2.16657776   0.29231572   0.59307771
H    2.03714925  -0.65856786   0.46082058
C    2.63279305   0.48289464   1.91929668
H    2.77329183   1.55914811   2.05129580
H    3.59827121  -0.01285535   2.10600825
H    1.91237971   0.13718548   2.67710082
O   -2.58152886  -0.02677230  -0.88510219
H   -1.82113300   0.54174730  -0.69273053
C   -3.60164920   0.28811455   0.04910044
H   -4.45048599  -0.36120043  -0.18187866
H   -3.94049928   1.33315250  -0.02740861
H   -3.29862608   0.09642536   1.09035428
O    1.54420538  -2.48555538   0.40708250
H    1.31536812  -3.16924358   1.05409658
C    0.42463733  -2.30822223  -0.44594395
H    0.69951312  -1.53494147  -1.16841566
H   -0.47207858  -1.96705477   0.09468778
H    0.16697069  -3.22148077  -1.00482147
O   -0.24470194   1.46691418  -0.39100701
H    0.58217907   1.24710111   0.06327625
C    0.08992199   1.96957327  -1.67471042
H   -0.85279196   2.21212386  -2.17265100
H    0.62340597   1.23192496  -2.29442580
H    0.69683042   2.88727309  -1.62710236
