24
Energy:    -97.72655249
O    0.70767979   0.25000309   2.22591633
H    0.47161450  -0.55700998   1.74484839
C    2.06765734   0.13769360   2.61370678
H    2.31697493   1.05483908   3.15423440
H    2.74957807   0.05249920   1.75318173
H    2.24896958  -0.71509280   3.28650583
O   -0.07189097   1.28225298  -0.40678963
H    0.00822376   0.91827967   0.48737386
C    0.49649460   2.58199595  -0.39496420
H    0.39785992   2.97725479  -1.40962023
H    1.56623600   2.57595124  -0.13344151
H   -0.02500193   3.26794937   0.29081025
O   -0.42755182  -1.74247493   0.54521672
H   -0.63679468  -1.79633972  -0.39910276
C   -1.61911972  -2.01246240   1.26619277
H   -1.36549496  -1.94767291   2.32777744
H   -2.01505736  -3.02133029   1.07075403
H   -2.41582419  -1.28059337   1.06026306
O   -1.05945184  -0.74004660  -2.20716332
H   -0.81159147  -0.00526664  -1.62657144
C   -0.71059665  -0.37717733  -3.53349650
H   -0.99656234  -1.21578033  -4.17416321
H    0.37023591  -0.20610833  -3.65724511
H   -1.24658646   0.51863666  -3.88422367
