24
Energy:    -97.95303678
O   -0.53672514   1.61496779  -1.26176318
H   -0.19092868   0.82185743  -1.69745118
C   -1.86689338   1.80964298  -1.71485015
H   -2.24111500   2.70683522  -1.21436093
H   -2.53175262   0.97116301  -1.45467545
H   -1.92585365   1.97545378  -2.80195999
O   -0.09562908   1.62061959   1.74732140
H   -0.25819537   2.00375531   0.87256287
C    1.30746687   1.60436101   1.95610644
H    1.47280731   1.16988638   2.94574250
H    1.75036853   2.61259849   1.94758378
H    1.84008819   0.98460834   1.21786631
O   -0.36850097  -1.13619428   0.82615027
H   -0.41710417  -0.18181226   0.98494559
C   -0.73630272  -1.79197836   2.02914774
H   -0.67615117  -2.86586732   1.83260385
H   -1.76610695  -1.55943900   2.34252615
H   -0.05787079  -1.55935125   2.86484629
O    0.35610095  -1.11506466  -1.88679737
H    0.02546087  -1.27386568  -0.99020234
C    1.49369161  -1.94068348  -2.07856497
H    1.85333912  -1.74927113  -3.09320786
H    1.25923715  -3.01354094  -1.99619189
H    2.31056911  -1.70868099  -1.37737788
