24
Energy:    -90.79489578
O   -0.95633535   0.35653110   2.05653908
H   -0.17694766  -0.20936994   2.16014469
C   -2.10379702  -0.47513112   2.12137302
H   -2.97244770   0.17824879   2.00294203
H   -2.19750190  -0.99592202   3.08717506
H   -2.13001127  -1.22702481   1.31716781
O    1.39642475  -1.13074999   2.16562421
H    2.25134101  -0.96226947   2.58889218
C    1.63831461  -1.89882383   0.99768344
H    0.66505516  -2.07952021   0.53335590
H    2.09781279  -2.87502194   1.21830983
H    2.27286566  -1.37328592   0.26697680
O   -0.61996760   1.43367339  -0.51385089
H   -0.82927372   1.09416550   0.36895635
C    0.06972467   2.66250686  -0.35006242
H    0.29780791   3.03097329  -1.35390291
H    1.01948689   2.54766291   0.19540979
H   -0.53620691   3.42499839   0.16397153
O    0.91933640  -0.04645600  -2.42679237
H    0.41787778   0.47988943  -1.78654006
C    0.03574748  -0.40122543  -3.47843065
H    0.61671964  -0.99357332  -4.19052652
H   -0.36539861   0.47540812  -4.01075834
H   -0.81062703  -1.01568378  -3.13365758
