24
Energy:    -97.73141920
O   -1.28090380   1.02231332   1.58675495
H   -1.09241402   0.08828180   1.41216971
C   -2.51500652   1.08950630   2.28318108
H   -2.71205993   2.14831974   2.47177920
H   -2.48449193   0.56980318   3.25362162
H   -3.35583317   0.68464493   1.69848017
O    0.58401089   1.46498056  -0.44736318
H   -0.02536713   1.59655094   0.29410222
C    0.30403011   2.46217916  -1.41676480
H    0.99922676   2.29932594  -2.24481410
H    0.46149206   3.48291017  -1.03454592
H   -0.72111567   2.39388807  -1.81323647
O   -0.36929310  -1.55538441   0.45819416
H    0.32121233  -1.16180634  -0.09563056
C   -0.93007583  -2.64233284  -0.26055449
H   -1.70587060  -3.07407769   0.37758661
H   -0.19351604  -3.43020472  -0.48307390
H   -1.40058234  -2.32952330  -1.20583284
O    1.73314312  -0.87514238  -1.35441989
H    1.38251343  -0.00021060  -1.13086573
C    2.99027576  -1.01218776  -0.71148144
H    3.37097542  -2.00299713  -0.97387385
H    2.91524891  -0.95486391   0.38572514
H    3.72440130  -0.26397303  -1.04913768
