24
Energy:    -96.50844549
O   -0.65334012  -0.66428613   1.22939070
H   -0.68192023  -0.90311524   0.29100532
C   -1.61009274  -1.46362274   1.90630958
H   -1.56464032  -1.18177039   2.96176139
H   -1.39392188  -2.54083124   1.83101468
H   -2.63767110  -1.28972205   1.55047450
O    1.07390243   1.62230891   1.11617629
H    0.45199190   0.95511566   1.44252538
C    2.03285388   1.85223439   2.13601949
H    2.72540157   2.60608436   1.75186702
H    2.61367454   0.95026090   2.38475331
H    1.58311848   2.24236909   3.06246988
O   -1.38466691  -1.08787275  -1.85307035
H   -0.60192948  -0.52535287  -1.75654693
C   -2.49521547  -0.24104290  -2.10225878
H   -3.36816926  -0.89079314  -2.20837909
H   -2.38698565   0.33979791  -3.03160672
H   -2.68970263   0.45964365  -1.27522164
O    0.85888945   0.45016394  -1.41721142
H    1.06429163   1.00317027  -0.64882531
C    2.03441684  -0.26725396  -1.75777078
H    1.78536800  -0.88491317  -2.62492531
H    2.37463711  -0.93407838  -0.95007487
H    2.86970999   0.39350587  -2.03787633
