24
Energy:    -95.40196821
O    0.10994351  -1.50335061   0.34965268
H   -0.57129660  -0.83570022   0.51870341
C   -0.45527083  -2.77471466   0.62660032
H    0.32534215  -3.51490413   0.43102906
H   -1.31598377  -3.00737096  -0.01979091
H   -0.77056534  -2.88034612   1.67646160
O   -2.60921732   0.09903166  -0.01953727
H   -1.89989195   0.75783494   0.01594539
C   -2.85210532  -0.19881225  -1.38512439
H   -3.65358084  -0.94221847  -1.40678968
H   -1.97297617  -0.62982864  -1.88924158
H   -3.18580233   0.67977194  -1.95915703
O   -0.23982912   1.54857967   0.40546402
H    0.68267243   1.30403023   0.23930220
C   -0.27815822   2.94634529   0.64487144
H   -1.32428302   3.20477429   0.83013487
H    0.07138594   3.53523783  -0.21756800
H    0.30834642   3.24265288   1.52860865
O    2.27436196   0.29145347  -0.05091075
H    1.71942012  -0.49416156   0.06429271
C    3.62604727  -0.13777457  -0.08617964
H    4.23726694   0.75940809  -0.21640636
H    3.83446147  -0.81782981  -0.92693271
H    3.93971262  -0.63210829   0.84657196
