24
Energy:    -95.49550351
O   -0.29078087  -0.45381647  -2.31338066
H    0.39989947  -0.03027502  -1.78234715
C    0.35016865  -1.24084411  -3.30449366
H   -0.44218610  -1.71066806  -3.89349673
H    0.97530532  -2.03923649  -2.87489957
H    0.97279614  -0.64113039  -3.98673686
O   -1.75973207   0.02173645   0.13984618
H   -1.50893366  -0.28665194  -0.74356768
C   -2.80483287   0.96842272  -0.01534139
H   -3.07515332   1.30542320   0.98907025
H   -3.70319852   0.53707270  -0.48401361
H   -2.49707184   1.84960619  -0.59978657
O    1.26690284   0.67012475  -0.22067538
H    0.51920459   0.65725775   0.39512089
C    2.39719246   1.15725982   0.48478798
H    3.23012291   1.16522607  -0.22348358
H    2.67754852   0.51494299   1.33426247
H    2.25596030   2.18395673   0.85724503
O   -0.25913402   0.22750872   2.54759663
H   -0.89438703   0.03143699   1.84301678
C    0.40131713  -0.98299811   2.88078017
H    1.11306693  -0.74405912   3.67564217
H    0.96425206  -1.40711839   2.03461022
H   -0.28832699  -1.75317696   3.26024407
