24
Energy:    -90.66078584
O   -0.60149850  -1.57585707  -1.40646637
H    0.25256357  -1.38701876  -1.82280918
C   -0.36526765  -2.45700337  -0.32004565
H   -1.33748091  -2.65925770   0.13753468
H    0.28928861  -2.01788570   0.44905064
H    0.06870756  -3.41778674  -0.63838220
O   -1.20724193   0.88991347  -0.17030882
H   -1.13805133   0.08000154  -0.69726100
C   -2.58596890   1.15259460   0.03619624
H   -2.64569946   2.06792357   0.63125115
H   -3.09307217   0.34943306   0.59347099
H   -3.13240070   1.32101308  -0.90498644
O    0.23170717   0.14219047   2.16820418
H   -0.24396182   0.43866886   1.37810112
C    0.52494634   1.28920799   2.94980215
H    1.06063578   0.93721458   3.83559144
H   -0.38088039   1.81752178   3.28616475
H    1.17148276   2.00862630   2.42329926
O    1.92289521  -0.80333189  -2.42579046
H    2.50252382  -0.80862424  -3.20195149
C    2.14462765   0.41364743  -1.73129076
H    1.48397697   0.40308286  -0.86013390
H    1.89733238   1.29981250  -2.33654596
H    3.18083594   0.51591338  -1.37269436
