24
Energy:    -95.69225042
O    0.80816997   1.26550635  -0.90468287
H    1.40797363   0.51730058  -0.76739864
C    0.82765153   1.58481225  -2.28678199
H    0.14686439   2.42936005  -2.42372394
H    0.47467060   0.75567100  -2.91979588
H    1.82551094   1.89016568  -2.63865300
O   -1.62809935   1.90942061   0.50787809
H   -0.74902322   1.90909662   0.10087893
C   -1.47794780   2.32371880   1.85633844
H   -2.47736941   2.31844574   2.29975004
H   -1.07043104   3.34294061   1.94518836
H   -0.84100901   1.64253964   2.44206984
O   -0.83172727  -1.10513878   0.28429347
H   -0.98961634  -0.20787918  -0.04497774
C   -2.00446743  -1.52767309   0.96155194
H   -1.80936370  -2.53992810   1.32591378
H   -2.88575430  -1.56609826   0.30228395
H   -2.24659425  -0.89347203   1.82869723
O    1.95279982  -1.28400639  -0.34603891
H    1.02711618  -1.35769444  -0.07017094
C    2.50449684  -2.59094072  -0.35535629
H    3.54724250  -2.48954227  -0.66822217
H    1.99807274  -3.26122670  -1.06741574
H    2.49083400  -3.06537798   0.63837403
