24
Energy:    -96.05520491
O   -1.04613956  -0.80840879   0.81634974
H   -0.25176812  -0.44049422   1.23112215
C   -1.26456610  -2.09563678   1.37120803
H   -2.16286575  -2.49553768   0.89306347
H   -1.44066545  -2.06599156   2.45789451
H   -0.43387435  -2.79083608   1.17264697
O    0.73687205   1.71317355   0.15359542
H    0.10025259   1.53283901  -0.55394849
C    0.81042604   3.12032288   0.31807750
H    1.53171676   3.30576755   1.11859931
H   -0.15216774   3.56449941   0.61623478
H    1.16552327   3.63634781  -0.58768271
O   -1.28241921   0.60500851  -1.67776252
H   -1.39534923   0.13527866  -0.83810548
C   -2.07606895  -0.05548793  -2.65059257
H   -1.93713592   0.48644819  -3.59000093
H   -3.14933765  -0.04204995  -2.40423704
H   -1.76944283  -1.10096193  -2.81103529
O    1.73274638  -0.51868791   1.58905669
H    1.65292995   0.35744247   1.18353460
C    2.50171908  -1.32919367   0.71481692
H    2.58180722  -2.31219378   1.18681466
H    3.52050903  -0.94053853   0.56057182
H    2.02729849  -1.46110921  -0.27022153
