24
Energy:    -96.52986876
O    0.58423675  -1.66505961   1.11954534
H    0.96434907  -1.63094971   0.22916654
C    1.65219098  -1.83844237   2.03712146
H    1.20638510  -1.87478198   3.03482971
H    2.37156635  -1.00490871   2.01480399
H    2.20367227  -2.77781986   1.87520899
O    0.54378990   2.08296093  -0.62532909
H   -0.22949747   1.59409435  -0.30680219
C    0.79131244   3.13963092   0.28829823
H    1.66529451   3.67989991  -0.08553325
H    1.02115922   2.77918453   1.30320029
H   -0.04725306   3.85048791   0.35362490
O   -1.52049185   0.19722294   0.55636806
H   -0.83898587  -0.44024980   0.81637071
C   -2.68916693  -0.53432638   0.22235023
H   -3.44647471   0.19889391  -0.06809448
H   -3.08407197  -1.11532105   1.07044959
H   -2.53414810  -1.21929964  -0.62591750
O    1.05387009  -0.63907505  -1.47499633
H    1.19139141   0.29961972  -1.27913083
C   -0.00018667  -0.73167618  -2.41994244
H   -0.14186389  -1.79543450  -2.62930102
H    0.23409223  -0.22514509  -3.36931959
H   -0.95116981  -0.32950519  -2.03697129
