36
Energy:   -475.85243474
O    0.06140586  -0.52604709   3.05105374
H    0.12853907  -0.38232164   3.99501771
H    0.23978620   0.33126040   2.66448400
O    2.55589232   2.03107351  -0.02907554
H    2.00796404   2.35248267  -0.74510808
H    3.40475881   2.45050253  -0.16956338
O   -1.19789798   2.89407432  -0.03080032
H   -2.04741998   3.33432495  -0.00390059
H   -1.41173986   1.96463548  -0.11232912
O    0.78266490   2.60758068  -1.97395772
H    0.53539569   1.81293941  -2.44685839
H    0.02485699   2.80486746  -1.42346980
O   -2.18370534  -1.43029066   1.69623022
H   -1.87083013  -2.20427102   1.22794040
H   -1.45940404  -1.19040971   2.27422383
O   -1.41462618   0.24036991  -0.25321538
H   -0.47914376   0.03907335  -0.22904542
H   -1.79134467  -0.28435043   0.45317233
O   -1.38811649  -1.72714509  -2.12826239
H   -1.63867297  -1.00751570  -1.54896383
H   -1.24033099  -2.46804551  -1.54050576
O    0.45005892   0.01261643  -3.12489215
H    0.71444035  -0.19760573  -4.02051537
H   -0.23022729  -0.62843630  -2.91875166
O   -0.97160516  -3.39452160   0.13139073
H   -0.14336078  -3.12078933   0.52548937
H   -1.00993774  -4.33857362   0.28477996
O    1.21339520  -2.36619578   1.31565196
H    1.41109091  -1.74065428   0.61862536
H    0.92396476  -1.82415209   2.04958009
O    1.29286790  -0.35777974  -0.53184942
H    1.83876144   0.39940998  -0.31996308
H    1.17692918  -0.31199863  -1.48089850
O    0.56786598   1.91028941   1.91576677
H    1.37044563   1.99899152   1.40173400
H   -0.09614376   2.37448117   1.40601298
