36
Energy:   -482.83726200
O   -2.71223547   1.28203330   1.73434267
H   -2.14367116   0.80188705   2.33636098
H   -3.28248987   1.79883651   2.30351418
O    1.53240389   2.25036755  -1.70762053
H    0.80984288   2.35502387  -1.08860156
H    2.25281333   1.90619476  -1.17961753
O   -3.15393754  -0.93844427   0.12684722
H   -3.15118836  -0.13811380   0.65191429
H   -2.64872831  -0.71445777  -0.65470607
O   -0.51822901   1.86262065   0.13830198
H    0.12535152   1.41151433   0.68468924
H   -1.31386379   1.88092150   0.67014991
O    0.39407175  -1.75528343  -0.00978161
H   -0.14533668  -1.25038286  -0.61834205
H   -0.23607442  -2.20379244   0.55412204
O    2.72945491  -1.33324356  -1.43264446
H    1.95353012  -1.70593331  -1.01398597
H    2.46615360  -1.18984440  -2.34167743
O   -1.07499700  -0.14491149  -1.61275460
H   -0.94219929   0.65806687  -1.10894673
H   -0.45318493  -0.07910665  -2.33749684
O    0.91184714   0.29481151  -3.49357404
H    1.17305071   1.03392960  -2.94429361
H    0.37337885   0.68568527  -4.18168845
O   -1.63561942  -2.52118008   1.69030959
H   -2.07728889  -3.33655700   1.92762878
H   -2.26932972  -2.05485178   1.14516648
O    1.22310413   0.31876777   1.54245765
H    2.07981470   0.58189895   1.20624221
H    1.00769604  -0.47615926   1.05468493
O    3.39359349   0.91676152  -0.08669978
H    3.22495979   0.09863669  -0.55410354
H    4.33754726   1.05117196  -0.17106191
O   -0.98617825  -0.22819127   3.14782022
H   -0.12337051  -0.01705557   2.79114619
H   -1.17708793  -1.10386406   2.81169153
