36
Energy:   -480.44526226
O   -1.73866702  -0.15109752  -0.13354192
H   -2.39739800  -0.70613739  -0.55095789
H   -2.23193790   0.37463299   0.49615890
O    0.23759046  -0.69705635  -3.20932617
H    0.13132903   0.14130203  -2.75977575
H   -0.51889994  -1.21473710  -2.93371639
O   -2.34038551   1.62863446   1.82746476
H   -1.83244184   2.32738500   1.41518722
H   -1.76819614   1.29031442   2.51621052
O   -0.51912433   3.27451300   0.45856352
H   -0.32396870   2.71184309  -0.29080202
H   -0.59099416   4.15347397   0.08641545
O    2.35570573  -1.70610521  -1.89608393
H    1.65796820  -1.35885948  -2.45179481
H    3.02312033  -2.01059087  -2.51096447
O    0.06351299   1.38670070  -1.39995715
H    0.84545940   1.05849557  -0.95602805
H   -0.65383425   0.86579718  -1.03898029
O   -1.70988036  -2.34597188  -2.11207909
H   -1.02688471  -2.69174731  -1.53745909
H   -2.04740314  -3.11407426  -2.57287075
O    1.44215850   2.14288507   2.05478814
H    1.88069683   1.58291409   1.41420365
H    0.83709007   2.67285564   1.53589003
O    0.14220070  -1.24603561   1.46882557
H   -0.57147973  -0.92702630   0.91644422
H    0.02445318  -0.78827468   2.30118505
O    2.00678144   0.19372004   0.10241535
H    1.43081435  -0.34853746   0.64135000
H    2.36397270  -0.40965573  -0.54918571
O    0.37535931  -3.14417828  -0.56802213
H    1.15407779  -2.78740271  -0.99526978
H    0.34485601  -2.70415022   0.28149344
O   -0.29077958   0.63627143   3.46187847
H   -0.13663453   0.72575023   4.40233830
H    0.36839942   1.19928635   3.05601016
