36
Energy:   -475.51317999
O   -0.69833377  -1.68871052  -2.80488310
H   -0.09385476  -0.97633516  -3.01310970
H   -0.93178847  -2.06156912  -3.65500499
O    1.03611608   0.34688095  -3.12557090
H    0.70371050   1.07818069  -2.60505283
H    1.80478706   0.03993813  -2.64477689
O    0.02648374  -1.32668722   1.28485375
H    0.60943602  -0.62416752   0.99699169
H    0.06394560  -1.29308495   2.24072997
O   -0.29220115   1.89113078  -1.14010750
H   -0.62854005   2.38424454  -0.39181156
H   -1.03348834   1.35937165  -1.42986149
O    1.60459397   0.70631769   0.42635930
H    1.00163601   1.15931405  -0.16310473
H    2.22180449   0.26319414  -0.15581295
O    1.04694031  -2.68710753  -0.90825655
H    0.37679059  -2.49015755  -1.56273490
H    0.65511758  -2.42176233  -0.07621165
O   -2.33765027   0.21374386  -1.67726491
H   -1.89125056  -0.54699990  -2.04905529
H   -2.47862810  -0.01590199  -0.75877709
O   -2.36770632  -0.09462253   1.07834886
H   -1.54061210  -0.56961173   1.15917127
H   -2.96814819  -0.55705523   1.66303458
O    0.68584735   1.74462801   2.84695302
H    1.23665065   1.48538233   2.10827903
H   -0.07663364   2.15966673   2.44371927
O    2.91370773  -0.82221700  -1.44789659
H    3.77321587  -1.21837690  -1.59119676
H    2.33501230  -1.56307751  -1.26770460
O    0.03528862  -0.65776279   3.92514200
H    0.25080013   0.23482151   3.65480906
H    0.49484736  -0.77423488   4.75668987
O   -1.49732716   2.51379435   1.30897054
H   -2.24632586   3.09535967   1.43941054
H   -1.87929726   1.63735886   1.26215682
