36
Energy:   -488.17019735
O   -3.23558464   0.51607298  -0.96396486
H   -4.12393616   0.80298440  -0.75243413
H   -2.74428364   0.63762005  -0.15151087
O    0.38673099   1.78412093  -0.54319485
H   -0.30731682   1.48199265   0.04267885
H    1.08076199   2.08625454   0.04269601
O   -2.22492304  -2.04252842  -1.44627702
H   -2.72229750  -1.23044499  -1.34947314
H   -1.60829306  -1.86312388  -2.15607511
O   -1.44783666   0.64346364   1.12288657
H   -1.13787526  -0.25256418   0.99139535
H   -1.03032574   0.92479436   1.93699314
O    1.44783398  -0.64345521  -1.12288797
H    1.03032267  -0.92478372  -1.93699510
H    1.13787448   0.25257306  -0.99139538
O    1.26060641  -1.31987160   2.75020398
H    2.05175067  -1.15313177   2.23783650
H    0.65139313  -1.71784966   2.12834829
O   -1.26061098   1.31987773  -2.75019797
H   -2.05175423   1.15312579  -2.23783288
H   -0.65140184   1.71785512  -2.12833780
O   -0.28476690  -1.13876158  -3.23132017
H   -0.62389229  -0.24589096  -3.16801242
H   -0.23202462  -1.30932913  -4.17172264
O    0.28476811   1.13877133   3.23131802
H    0.23203211   1.30934378   4.17171996
H    0.62389104   0.24589960   3.16801270
O    2.22493194   2.04251242   1.44627265
H    2.72229997   1.23042473   1.34947149
H    1.60830138   1.86311556   2.15607217
O    3.23558300  -0.51609213   0.96396326
H    4.12393744  -0.80298932   0.75242547
H    2.74428189  -0.63762957   0.15150790
O   -0.38673275  -1.78411088   0.54319822
H    0.30731529  -1.48198775  -0.04267786
H   -1.08076009  -2.08625751  -0.04269026
