36
Energy:   -484.35454324
O   -2.61261458   1.22332742   1.84120581
H   -1.98896200   0.86513796   2.47286206
H   -3.28172009   1.64730363   2.37858263
O    1.19242113   2.20443442  -2.10592166
H    0.48181586   2.29528587  -1.47108466
H    1.95667026   1.97113957  -1.57892201
O   -3.07790838  -1.18721067   0.52660678
H   -3.06581677  -0.32107752   0.93391381
H   -2.64567865  -1.06123113  -0.31810528
O   -0.68117566   1.73300832  -0.08430946
H    0.01213823   1.32755465   0.43641602
H   -1.43293209   1.77331923   0.50684969
O    0.48991861  -1.92018784   0.02772325
H   -0.16898943  -1.54686567  -0.55768480
H   -0.01496716  -2.29470588   0.74956704
O    2.49909886  -1.22115640  -1.77787310
H    1.91797789  -0.95001054  -2.48851379
H    1.93251068  -1.70251698  -1.17496209
O   -1.26512393  -0.51255128  -1.51359089
H   -1.12987659   0.33297576  -1.08577781
H   -0.76650070  -0.45172424  -2.32839564
O    0.63547489  -0.04919657  -3.47857814
H    0.83287851   0.80499839  -3.09437165
H    0.62470021   0.10895862  -4.42256050
O   -1.19076760  -2.36782741   2.11920577
H   -1.95912510  -2.12196856   1.60402422
H   -1.03538030  -1.61668976   2.69181285
O    1.20965827   0.35236085   1.30482833
H    1.99451390   0.66662009   0.85596908
H    1.02492432  -0.49520452   0.90018261
O    3.16705657   1.05713034  -0.51579573
H    3.03254629   0.22711776  -0.97319921
H    4.11518762   1.18785328  -0.52961136
O   -0.60194241   0.07935705   3.34980322
H    0.12932849   0.22015721   2.74842976
H   -0.20052098   0.07436930   4.21874960
