36
Energy:   -475.34045290
O   -0.78275651  -0.90608250  -2.95680636
H    0.05457135  -0.96095509  -2.49626004
H   -0.98257924   0.02972046  -2.98079674
O    3.12687276  -0.19537806   0.94324579
H    2.48387609  -0.09183682   1.64472019
H    3.80435701  -0.75710437   1.31969033
O    1.22917870   0.17546415   2.81205065
H    0.43190514   0.57412782   2.46326131
H    0.96296844  -0.70684151   3.07070231
O    1.24305162  -0.85776732  -0.98641068
H    2.02286265  -0.76736399  -0.43873026
H    0.59499453  -1.26988642  -0.41508617
O   -1.40642490   1.77208733  -2.56110703
H   -0.64939258   1.93977200  -1.99984437
H   -1.44776431   2.53200358  -3.14166728
O    0.34925645  -2.40051120   3.07464864
H   -0.27224481  -2.90248776   3.60189389
H   -0.07184393  -2.32046512   2.21878712
O   -0.93383668   0.97524511   1.19938890
H   -1.80017735   1.02852015   0.79584528
H   -0.34745799   1.38593890   0.56399729
O    0.69483068   1.79881048  -0.83017234
H    1.47534696   2.21303374  -0.46214345
H    0.94939612   0.88631316  -0.96720130
O   -2.68480752  -1.83785074  -1.29895447
H   -2.04745433  -1.58196836  -1.96569053
H   -3.24288619  -2.48176327  -1.73502408
O    2.97503842   2.52009955   0.46931248
H    3.02509446   2.92396270   1.33569622
H    3.18999590   1.59972845   0.62077919
O   -3.05519436   0.81374519  -0.51777664
H   -2.63687173   1.23459136  -1.26886021
H   -3.11831306  -0.10904985  -0.76414468
O   -0.76058364  -1.69063549   0.66710071
H   -0.88771457  -0.77327257   0.90899912
H   -1.48235849  -1.88325959   0.06862860
