36
Energy:   -481.31162838
O   -2.14444589   1.03674541   2.41846963
H   -1.86495037   0.15690541   2.67144331
H   -2.69366446   1.33215555   3.14464018
O    1.26414388   1.43898030  -2.81646380
H    1.74973107   1.86111255  -2.10777396
H    1.62002208   0.55126143  -2.85567826
O   -3.31498894   0.23995385   0.02016508
H   -3.02062124   0.62626652   0.84499356
H   -2.72914334   0.60948707  -0.64048761
O    0.16772444   1.60478219   0.98729676
H    0.49618736   0.71249921   1.09763734
H   -0.60295480   1.64852451   1.55331087
O   -0.33745873  -1.56528996  -1.19842010
H   -0.65932824  -0.68053814  -1.37118031
H   -1.06961836  -2.00735568  -0.76859218
O    3.24730619  -0.29062798  -0.11447883
H    3.14496136   0.65443384  -0.22679778
H    3.01858568  -0.65984352  -0.96747277
O   -1.03697506   1.05570071  -1.40462232
H   -0.65997274   1.35733055  -0.57811126
H   -0.38389786   1.28732621  -2.06497953
O    2.07022691  -1.20304141  -2.47375524
H    2.27395942  -1.86575250  -3.13370897
H    1.22904192  -1.47813474  -2.10911387
O   -2.38294787  -2.29832025   0.43421777
H   -2.88186491  -1.50559593   0.23698239
H   -2.06882415  -2.16778826   1.32893534
O    0.93948238  -0.99366485   1.12529193
H    1.84976868  -0.85343132   0.86462881
H    0.50315915  -1.28657814   0.32525712
O    2.41004272   2.34797870  -0.44437901
H    2.77896938   3.20071540  -0.21423755
H    1.64122922   2.25919160   0.11889224
O   -1.14414572  -1.50559481   2.82343508
H   -0.94187372  -2.14731154   3.50425629
H   -0.32377785  -1.40018448   2.34164980
