36
Energy:   -476.91516159
O   -2.93228406  -0.48919279  -0.11869598
H   -2.43283691  -0.62198642  -0.92439459
H   -2.48490279  -1.02927189   0.53276116
O    0.35582954   0.26321919   1.94272767
H   -0.17805946  -0.53043384   1.90654421
H   -0.16686291   0.88096438   2.45401558
O    2.26703778   1.61097372  -1.34951155
H    2.64015072   1.16656567  -0.58824939
H    1.38251323   1.85388266  -1.07593630
O   -1.28077631  -1.91627432   1.59786105
H   -0.81535596  -2.30855200   0.85912296
H   -1.53060697  -2.65992910   2.14630800
O   -2.89077776   2.10973051   0.59788136
H   -3.00392134   1.18516140   0.37742197
H   -3.64883841   2.54417315   0.20693956
O   -1.44568687   2.04889770   2.95825927
H   -1.74235359   2.72450756   3.56799038
H   -2.03338944   2.12885572   2.20696421
O    2.87248676   0.03815697   0.86213724
H    2.03835062   0.09472784   1.32823646
H    3.53549647   0.07208226   1.55170163
O    1.79373734  -0.43249602  -3.03647779
H    2.00565568   0.34682420  -2.52268555
H    2.25231430  -0.30449527  -3.86687217
O   -0.79333876  -0.49908451  -1.99089296
H   -0.02663541  -0.54352879  -2.56222694
H   -0.64183584   0.27285766  -1.44556370
O   -0.02268177  -2.74301033  -0.60166460
H    0.93011231  -2.67922350  -0.66759281
H   -0.34991071  -2.05337506  -1.17920790
O    2.59370505  -2.06658431  -0.93153519
H    2.77209421  -1.38573597  -0.28280204
H    2.41045993  -1.58649329  -1.73910296
O   -0.31620842   1.61323709  -0.33404715
H   -0.05344933   1.15430767   0.46380829
H   -1.16901246   1.99305562  -0.12263523
