36
Energy:   -476.06122919
O   -1.02171805   0.78326633   1.05594000
H   -0.35003362   1.15336032   0.48313785
H   -0.70972127   0.96754951   1.94190251
O   -0.54098319  -1.89520450   0.98868003
H   -0.75172519  -0.96152723   0.99682950
H    0.40603175  -1.92630052   0.85293179
O   -2.65051267   0.80222277  -1.19451581
H   -2.31644457   0.89061749  -0.30186990
H   -2.18177262   1.47117997  -1.69352570
O    1.29076862  -0.72622623  -1.84569693
H    1.75591598  -1.17749490  -1.14126356
H    0.39736938  -1.06679255  -1.80004374
O    2.34820547   0.77397423   1.60091267
H    2.00386066   1.32195655   0.89566529
H    1.72706961   0.88983631   2.31993844
O    2.18065742  -1.71101447   0.58089392
H    2.33068006  -0.85628348   0.98482458
H    2.91811361  -2.24704286   0.87255089
O   -0.91746840   2.43749060  -2.62058656
H   -1.12436404   3.15253564  -3.22236446
H   -0.69712227   1.70052635  -3.19029098
O   -0.29151993   0.18899303  -3.98568372
H   -0.92687910  -0.49300647  -3.76790571
H    0.51673134  -0.08970342  -3.55523046
O   -1.30053613  -1.50777250  -1.67500879
H   -1.88610527  -0.76135746  -1.54770909
H   -1.21667787  -1.89811403  -0.80504722
O   -0.43454058  -1.73391658   3.70399734
H   -0.51737268  -1.92980525   2.77072444
H   -0.95395621  -2.41056502   4.13826240
O    0.89120507   1.67403215  -0.64400797
H    1.12364272   0.86740202  -1.10395624
H    0.36302994   2.16537336  -1.27317145
O    0.29680127   0.87836668   3.48078413
H    0.24211375   1.32574309   4.32523394
H    0.07897023  -0.03275624   3.67734585
