36
Energy:   -476.79917596
O   -2.27288519   1.65388497   2.02456619
H   -1.54021425   1.21416993   2.45593125
H   -2.60872552   2.26237867   2.68272920
O    0.99583578   2.18270824  -2.24747554
H    0.29564749   2.30871337  -1.60709213
H    1.74390235   1.88513638  -1.72971185
O   -3.10946163  -0.77822174   0.95856996
H   -2.99835104   0.10654550   1.30652574
H   -2.73448087  -0.73893758   0.07875292
O   -1.03984468   1.97419144  -0.43664977
H   -1.47075666   2.04455373   0.41516938
H   -1.22732982   1.08171352  -0.72744925
O    0.57362184  -1.84177021   0.23554530
H    1.11296397  -1.20434153   0.70354806
H   -0.01445384  -2.19477379   0.90321836
O    2.13238030  -1.32737310  -2.03863752
H    1.47060005  -1.01897727  -2.65764540
H    1.63074873  -1.75258588  -1.34308615
O   -1.38580517  -0.61510658  -1.22877087
H   -0.69805300  -1.07125127  -0.74383704
H   -1.02500237  -0.50241098  -2.10817572
O    0.12922253  -0.04966034  -3.47237325
H    0.41995195   0.79429899  -3.12677102
H   -0.06601812   0.12260284  -4.39348037
O   -1.27276023  -2.24878098   2.25252002
H   -1.69113951  -2.96822630   2.72537207
H   -1.99516807  -1.79401253   1.81945602
O    2.06947464   0.05684314   1.53107199
H    2.40168995   0.50400461   0.75266885
H    2.85069971  -0.13288196   2.05061374
O    3.05174695   0.92290134  -0.88842576
H    2.81038239   0.10831647  -1.32936396
H    3.91069487   1.14492355  -1.24779530
O   -0.25162929   0.20971958   3.06864734
H    0.56144947   0.27370428   2.56760768
H   -0.55137354  -0.68808439   2.92605256
