49
Energy:   -882.67009365
O   -1.17734573  -3.30699194   1.49985352
H   -1.84621022  -3.95390017   1.72426805
H   -1.65918162  -2.48477202   1.41029673
O   -1.72325515   1.00651914   3.08892638
H   -0.82104066   0.80287409   3.33544121
H   -2.14102615   1.27445632   3.90740601
O   -1.47490609   0.63482884  -2.67731315
H   -1.01500316   1.39099262  -3.04191909
H   -1.12562764  -0.11422239  -3.16017821
O    3.73812536   0.29598419  -0.35342908
H    3.25245298   0.35895685  -1.17585758
H    4.65301713   0.42277946  -0.60468165
O    0.91061941   0.22196209   3.51778473
H    1.35245842   0.37010051   4.35388589
H    0.96210396  -0.72437239   3.38350057
O   -3.55710581   0.65815309  -0.84067078
H   -3.00729849   0.65556018  -1.62421212
H   -4.45041968   0.74008959  -1.17459981
O    0.47417143   3.14476609  -0.65982588
H    1.10546714   2.94107524   0.03025210
H   -0.37018655   3.17879011  -0.21023293
O   -1.79234782   2.27028105   0.60219437
H   -2.59733266   1.94528856   0.19894367
H   -1.88344530   2.05191892   1.52969158
O    0.07209760  -1.49639308  -3.56848981
H    0.07724273  -2.09397037  -4.31622422
H   -0.07156289  -2.06231469  -2.80998718
O    1.87634768  -1.60791887   0.37007830
H    1.89144956  -1.93142409   1.27082696
H    2.71407453  -1.15743419   0.26279770
O    1.06841611  -2.46367204   2.88921636
H    1.42519434  -3.18674510   3.40507148
H    0.29127452  -2.83030911   2.46748178
O    0.41517737   2.58930414  -3.30682654
H    0.54053757   3.31637060  -3.91665523
H    0.46389765   2.99211216  -2.43987562
O   -2.17388430  -0.81739806   1.07675163
H   -2.84058499  -0.45271198   0.49473265
H   -2.18625394  -0.24530373   1.84407615
O   -0.20700964  -2.53752560  -1.06274073
H   -0.70456295  -3.02771410  -0.40822734
H    0.66292623  -2.43619570  -0.67650805
O    1.78994495   1.55053709   1.20685470
H    1.69017026   1.16326808   2.07650956
H    2.62228126   1.20496951   0.88431608
O    1.81360544   0.37158933  -2.39216851
H    1.53032417   1.17759041  -2.82384643
H    1.45415983  -0.33032333  -2.93470820
K   -0.05718657   0.28178328  -0.35982384
