49
Energy:   -883.51052795
O   -2.76301507  -2.47127119  -1.22415434
H   -3.30213615  -3.25518657  -1.32930658
H   -2.30599199  -2.60394595  -0.39363694
O   -2.98208932  -0.47370413   2.51740092
H   -3.80669618  -0.47957341   3.00342656
H   -3.22750577  -0.20655838   1.63160424
O   -1.64743938   1.81781204  -1.80609939
H   -1.71719907   2.77245628  -1.80164963
H   -1.32453651   1.60485932  -2.68166591
O    3.63946910  -0.54413477  -1.03965885
H    4.47596594  -0.61450080  -1.49960831
H    3.09864185   0.00451460  -1.60774475
O    1.55760315  -0.34153667   3.33432033
H    1.97983345   0.09896862   2.59681880
H    2.08022494  -0.08942255   4.09559347
O   -3.06851776   0.09144601  -0.16888676
H   -3.19583381  -0.71465778  -0.66910586
H   -2.89793002   0.76072033  -0.83161111
O   -0.50997753   3.38691717   1.02625033
H   -0.61599442   2.64764355   1.62497129
H   -0.98977888   4.10323030   1.44208444
O   -0.67292796   0.99576784   2.36272699
H   -1.48768204   0.56018506   2.61307730
H   -0.00114931   0.57495514   2.89925467
O   -0.31989264   0.81768483  -3.99897143
H   -0.39443075   0.72893123  -4.94912864
H   -0.41501753  -0.07481872  -3.66637479
O    1.42814599  -2.12739295  -0.59274084
H    1.47455615  -2.53156862   0.27370014
H    2.31112203  -1.79243700  -0.74891278
O    1.16720618  -2.79133215   2.12885594
H    1.36200797  -2.01833479   2.65872308
H    1.49886452  -3.52597552   2.64512497
O    1.83970959   3.21196198  -0.32251526
H    2.31694090   4.04167820  -0.31522664
H    1.01912391   3.40309069   0.13173226
O   -1.31509125  -2.18379995   1.08989151
H   -1.86274342  -1.80185327   1.77576736
H   -0.56086973  -2.54296729   1.55720358
O   -0.53714952  -1.46223826  -2.48242063
H    0.17174941  -1.96761975  -2.08457177
H   -1.33421213  -1.93097236  -2.23501124
O    2.31816230   0.79733791   0.98314793
H    2.31786428   1.69771217   0.65825111
H    2.93255762   0.33631232   0.41200378
O    1.67127604   1.05490437  -2.08306559
H    1.73533900   1.94712483  -1.74237448
H    1.13199058   1.13652158  -2.86966693
K   -0.18761376   0.08354236  -0.18855035
