49
Energy:   -883.72155739
O   -1.01171521  -3.82313187  -0.22716704
H   -1.48370125  -4.56874871  -0.59799926
H   -1.63869134  -3.10070460  -0.26226161
O   -0.18799322   1.04020552   3.80194507
H    0.53161272   1.57067427   3.45988946
H   -0.22685435   1.26007281   4.73274045
O   -1.24839089   1.15099565  -2.56607636
H   -0.80752500   1.99528593  -2.66117123
H   -0.76289047   0.56051466  -3.14214353
O    2.46572051   0.40986438   0.74528177
H    2.65426393   0.66255088  -0.15850624
H    2.72365640  -0.51053536   0.79593002
O   -0.87792052  -0.96202783   2.09569371
H   -0.67270542  -0.34452003   2.79769280
H   -0.37673296  -1.74796279   2.31329223
O   -3.64736847   0.79941455  -1.23139033
H   -2.95156117   0.96556272  -1.86737684
H   -4.45786893   0.95485578  -1.71632217
O    0.16558068   3.03190329   0.36572914
H    0.72400523   3.02112441   1.14308214
H   -0.72118242   2.91195932   0.70557689
O   -2.23408417   1.80041971   0.91982857
H   -2.91186264   1.61602133   0.26956290
H   -2.68851338   1.75080499   1.76081865
O    0.63373689  -0.62642218  -3.63354709
H    0.84376930  -1.06684069  -4.45704558
H    0.72074960  -1.30848555  -2.96762653
O    2.70993662  -2.34802167   0.69625679
H    2.06106196  -2.75010229   1.27377277
H    3.49536902  -2.88357472   0.80810810
O    0.52241118  -3.37234064   2.03860388
H    0.44548697  -4.06252077   2.69736476
H   -0.02821699  -3.66953337   1.31423040
O    0.43030620   3.36136562  -2.33321105
H    0.55097957   4.24781197  -2.67362646
H    0.35159773   3.47659717  -1.38623770
O   -2.34955356  -1.44187269  -0.20674028
H   -2.99455485  -0.80406483  -0.51236474
H   -2.24833359  -1.25267754   0.72610030
O    0.82405459  -2.07144896  -1.30394106
H    0.21778656  -2.77372580  -1.06840301
H    1.60212541  -2.23754833  -0.77172997
O    1.81964031   2.41298587   2.49789013
H    2.57070614   2.90768068   2.82562326
H    2.20484943   1.71306780   1.97067055
O    1.97010683   1.08995114  -1.90136843
H    1.66450867   1.96279526  -2.14831933
H    1.74177827   0.53569317  -2.64762309
K   -0.12306431   0.30445048  -0.20442162
