49
Energy:   -886.67455140
O   -1.18416708  -3.18078002   0.66627118
H   -1.86842070  -3.84029842   0.55197196
H   -1.66029807  -2.36773698   0.83506731
O   -1.56016570   0.39228126   3.39983942
H   -0.75808283  -0.10564948   3.24185238
H   -1.75665882   0.24363104   4.32478559
O   -1.67812134   0.77856387  -2.52459276
H   -1.35346224   1.62941257  -2.81935502
H   -1.24573969   0.14516373  -3.09737739
O    2.71855700   0.40975350  -0.05114463
H    2.66042482   0.72006376  -0.95478174
H    2.93960371  -0.51824387  -0.12982807
O    0.68952257  -0.70430080   2.33595006
H    1.44355801  -0.15180365   2.54188526
H    1.04098388  -1.59453180   2.32196534
O   -3.54948700   1.26010573  -0.57843363
H   -3.09322971   1.05147499  -1.39362339
H   -4.45778500   1.40668040  -0.84252160
O   -0.12363999   2.31751653   1.99568580
H    0.77084871   2.22932535   2.32484249
H   -0.66335362   1.86347354   2.64282258
O   -1.38117451   3.05295773  -0.34055096
H   -1.07062931   3.14097512   0.56058524
H   -2.26896737   2.70534612  -0.25556945
O    0.14371121  -0.89363118  -3.76585555
H    0.22612765  -1.48297700  -4.51559610
H    0.22741472  -1.46412665  -3.00181335
O    2.86467185  -2.37094380  -0.18218024
H    2.48976522  -2.79899400   0.58752743
H    3.61388055  -2.91735289  -0.41957292
O    1.31384242  -3.34940227   1.88388121
H    1.39839667  -4.07287357   2.50490593
H    0.42600536  -3.43401605   1.53629278
O   -0.36785927   3.20494514  -2.87926278
H   -0.43249629   4.02586287  -3.36726687
H   -0.69756524   3.41810780  -2.00628654
O   -2.27326560  -0.65087662   0.94675823
H   -2.91370885  -0.09535959   0.50238773
H   -2.24126656  -0.31189615   1.84135319
O    0.37317493  -1.95690897  -1.25407069
H   -0.18886415  -2.51276563  -0.71428620
H    1.26385893  -2.18945229  -0.99170172
O    2.49101024   1.39423158   2.49734675
H    3.26398932   1.76976754   2.91890093
H    2.78146849   1.17980466   1.61084410
O    1.47693884   1.16614202  -2.42039646
H    1.05972224   1.97862573  -2.70680941
H    1.19209981   0.51214344  -3.05866321
K   -0.06294629   0.55687850  -0.17408986
