49
Energy:   -887.57871401
O   -1.91484929  -2.55888053  -1.89886651
H   -2.52412688  -3.27625112  -2.07319981
H   -1.86952879  -2.50919420  -0.94403188
O   -2.46569577  -0.56952462   2.79215831
H   -1.64352382  -0.56506987   3.28230654
H   -3.13534584  -0.76189282   3.44850815
O   -1.60796049   0.15592077  -2.58291721
H   -0.95453080   0.20323531  -3.28078742
H   -1.87737888  -0.76246436  -2.56827722
O    3.62759975   0.34933061   0.23363107
H    4.57214243   0.50429168   0.22601227
H    3.32128136   0.69277475  -0.60568234
O    0.13782785  -0.62569003   3.78272873
H    0.62899392  -0.06352229   3.18360006
H    0.46234785  -0.39123152   4.65218133
O   -2.63164885   2.39529552  -1.37315442
H   -2.44067829   1.64144954  -1.93125686
H   -3.32433239   2.86697693  -1.83568876
O    0.25086659   3.32194046   1.67384061
H    0.03213715   4.09046843   2.20086436
H   -0.55916137   2.81281511   1.64421073
O   -1.71293742   1.49969121   1.10783015
H   -2.32463544   1.78651878   0.42975397
H   -2.22559944   0.90835187   1.65894474
O    0.75892973   0.10009870  -4.08368928
H    0.99641359  -0.03139099  -5.00159108
H    0.86899610  -0.76151626  -3.68152401
O    1.97266964  -1.91163570   0.04052245
H    1.77893012  -2.32512732   0.88178432
H    2.74045525  -1.36643355   0.21225398
O    0.75987807  -2.88901651   2.33437459
H    0.60460386  -2.19545766   2.97554375
H    0.92357717  -3.67098063   2.86159995
O    0.13940844   2.84326367  -1.05308723
H   -0.78977471   2.94918106  -1.25712651
H    0.24487557   3.25337425  -0.19464804
O   -1.30907580  -1.97391172   0.72155447
H   -1.86786888  -1.58692542   1.39551571
H   -0.65066139  -2.46781293   1.21020967
O    0.75762719  -2.03059475  -2.42781133
H   -0.07405428  -2.48720720  -2.30115091
H    1.29312340  -2.29540940  -1.67991505
O    1.43838898   0.83934336   1.86702890
H    1.23736610   1.77490182   1.89052402
H    2.31629272   0.79194507   1.48851830
O    2.16347234   1.21134340  -1.94574781
H    1.66817190   2.01927201  -1.81098620
H    1.89653497   0.90811415  -2.81351985
K    0.12567957   0.08068174  -0.46040438
