49
Energy:   -891.79268100
O   -1.40646304  -3.62496089   0.30267503
H   -2.08955490  -4.27577585   0.14125245
H   -1.88237181  -2.80462682   0.43226945
O   -2.07783022   0.50140610   2.94777698
H   -1.19696503   0.15695669   3.09496046
H   -2.44738808   0.59826039   3.82543186
O   -1.09663019   0.77513719  -2.44540823
H   -0.71288370   1.63564473  -2.61421953
H   -0.64558257   0.18801780  -3.05210314
O    2.19753802   1.79294361   0.52868048
H    1.75104108   2.63788855   0.47445519
H    2.47729389   1.61132584  -0.36852824
O    0.39891850  -0.59798595   2.69568638
H    1.31860858  -0.35886743   2.81068347
H    0.39373372  -1.55460217   2.72870710
O   -3.39103390   0.88699214  -0.98606322
H   -2.73723529   0.84184601  -1.68373153
H   -4.20988877   1.09188578  -1.43742466
O    0.40950339   3.87805551   0.05494912
H    0.32157327   4.72461178   0.49294754
H   -0.33937126   3.36866306   0.36468764
O   -1.49548969   2.02444603   0.71444054
H   -2.25189396   1.83976640   0.15768398
H   -1.74939913   1.70166517   1.57906437
O    0.66936792  -0.94354214  -3.72666576
H    0.82252342  -1.39528745  -4.55654612
H    0.58892601  -1.64653907  -3.08202922
O    2.19222106  -1.97853255   0.58540917
H    1.78436464  -2.57926433   1.20911288
H    2.76776082  -1.43169559   1.12015694
O    0.48550083  -3.33862463   2.28606415
H    0.59980929  -4.10966071   2.84164384
H   -0.20343266  -3.58697139   1.66968247
O    0.37455792   3.12029095  -2.59456371
H    0.44592474   3.84419337  -3.21674047
H    0.38495749   3.54089386  -1.73478648
O   -2.30247526  -1.06024666   0.64791237
H   -2.85671785  -0.53230081   0.07317749
H   -2.40064868  -0.65861393   1.51121126
O    0.40522536  -2.45372877  -1.46231378
H   -0.22369970  -3.02565154  -1.02232576
H    1.21119118  -2.54774829  -0.95456259
O    3.09503507  -0.01214874   2.37634256
H    2.95218790   0.74753443   1.81180026
H    3.88985834   0.19892936   2.86617298
O    1.97252977   0.92119877  -2.07933908
H    1.57734003   1.72581240  -2.41497852
H    1.80749011   0.27014786  -2.76134089
K    0.21083367  -0.05352815  -0.07562901
