49
Energy:   -882.72183815
O   -2.31494712  -1.68193106  -2.88244833
H   -3.09929501  -2.17976184  -3.11308822
H   -1.75183745  -2.31441741  -2.43624168
O   -2.25838452  -1.08286161   2.88664239
H   -1.46367053  -0.74760289   3.30168831
H   -2.81743727  -1.34730520   3.61723219
O   -1.08517012   2.28838681  -2.99227884
H   -0.84924924   1.56316610  -3.57074932
H   -1.46074668   2.94806490  -3.57537310
O    2.65030927   0.05098690   1.24878316
H    2.71684223   0.74163932   1.90818019
H    3.02133651   0.43916981   0.45639142
O    0.27977327  -0.21612146   3.38338045
H    0.86884272  -0.96851670   3.32743019
H    0.85202041   0.52149940   3.59475815
O   -2.16329466   0.50262511  -1.16366525
H   -2.37141651  -0.24969291  -1.71768216
H   -1.94934710   1.20283565  -1.78023923
O    0.01570879   2.83718001   1.81035402
H    0.16913499   3.12770502   0.91130593
H   -0.92817901   2.68463386   1.85549084
O   -2.36300730   1.34828713   1.50182888
H   -2.61475165   0.59167786   2.03135607
H   -2.71388329   1.15952363   0.63149203
O   -0.46224080  -0.11193432  -4.17696693
H   -0.28417611  -0.37812336  -5.07900252
H   -1.17820187  -0.68152740  -3.89555031
O   -0.45262727  -3.18852975  -1.52224759
H   -0.55763686  -3.03377025  -0.58349612
H   -0.22517387  -4.11594108  -1.58861792
O    1.85776760  -2.29431194   2.47294968
H    2.52171524  -2.86428730   2.86093611
H    2.35872442  -1.61351446   2.02374048
O    0.67747744   2.53537118  -0.87768228
H    1.54719973   2.27598312  -1.18187437
H    0.15341242   2.60007642  -1.67605622
O   -0.54300348  -2.34472504   1.06743129
H   -1.23861418  -2.16341539   1.69947908
H    0.22409182  -2.54214033   1.60485463
O    0.94040934  -0.79737951  -1.88736179
H    0.66331139  -1.70910177  -1.79674673
H    0.54485029  -0.50687893  -2.70917339
O    2.09940664   1.89003211   3.27010365
H    1.41566280   2.41048841   2.84837928
H    2.50524224   2.48936219   3.89646839
O    2.97513764   0.99166214  -1.34456237
H    3.73699846   0.99554478  -1.92403184
H    2.43145419   0.27320440  -1.66776295
K   -0.00049494   0.30212995   0.56234541
