49
Energy:   -887.35571531
O   -1.37918913  -1.51345050  -3.39095774
H   -2.02101528  -1.86661467  -4.00704710
H   -1.19232204  -2.23990822  -2.79633877
O   -2.50146265  -1.23038169   2.76917491
H   -1.72130849  -0.85599228   3.17834957
H   -3.06735426  -1.46765033   3.50381913
O   -1.19877274   3.06511282  -1.72591741
H   -1.48985591   3.81299728  -2.24761777
H   -1.26179250   3.36581376  -0.81936388
O    3.15136133   2.00358383   0.26775033
H    3.90323571   2.54351460   0.02404656
H    2.59263777   2.00537105  -0.50946048
O   -0.04968481  -0.18550741   3.29015137
H    0.64082285  -0.84266469   3.37718775
H    0.41796318   0.64756267   3.23072553
O   -1.90707430   0.35650933  -1.42564806
H   -1.86110481  -0.21994083  -2.18842185
H   -1.80390847   1.23792673  -1.78438478
O   -1.24829710   3.51655767   0.99558452
H   -1.65582818   4.22465129   1.49433666
H   -1.77396994   2.74384825   1.20251463
O   -2.41403196   1.04815849   1.19993360
H   -2.67837897   0.32789364   1.77227183
H   -2.66121370   0.75966912   0.32135126
O    1.03916303  -0.19151658  -3.65857801
H    1.40685697  -0.21966045  -4.54189049
H    0.18458160  -0.61479889  -3.74076394
O   -0.59191068  -3.39971223  -1.50768071
H   -0.75051731  -3.22504140  -0.58001380
H   -0.59660139  -4.35443474  -1.57634497
O    1.59702528  -2.35701703   2.76387263
H    2.16827527  -2.92011986   3.28619484
H    2.19476156  -1.86406943   2.20178202
O    1.14542582   1.64667176  -1.57951311
H    1.18005119   1.11703597  -2.37608004
H    0.42618453   2.26003296  -1.73021769
O   -0.67924598  -2.53521001   1.10936163
H   -1.42097464  -2.31468938   1.67278075
H    0.03995933  -2.70921433   1.71656675
O    1.51883380  -1.61253741  -1.35247055
H    0.95210547  -2.37648296  -1.45941936
H    1.52616362  -1.19659245  -2.21454242
O    0.95488913   2.09032204   1.98856106
H    0.36642070   2.80138335   1.73493026
H    1.78535801   2.30259150   1.56253878
O    2.74490130  -0.68235311   0.93767186
H    3.13097907   0.17810698   0.77401290
H    2.67452335  -1.08258169   0.07101398
K    0.09474202   0.01390469   0.44461523
