49
Energy:   -891.26294259
O   -2.69466096  -2.24154507  -1.50488545
H   -3.36379274  -2.91339120  -1.63571851
H   -2.42374089  -2.34704883  -0.59290786
O   -1.92559546  -0.51803482   3.23992160
H   -1.04726405  -0.70004221   3.57404595
H   -2.49852919  -0.62753551   3.99886059
O   -1.11144831   1.80264223  -2.43119674
H   -0.64686065   2.60555441  -2.19514128
H   -0.64255805   1.47026464  -3.19663708
O    3.50663655  -0.12952329  -0.01934552
H    4.45437138  -0.09676732  -0.14956678
H    3.14699128   0.38196411  -0.74409911
O    0.74454535  -1.05842108   3.71109293
H    1.06523149  -0.42909020   3.06507831
H    1.28294506  -0.90150697   4.48680909
O   -2.98581596   0.48204232  -0.85368296
H   -3.17071337  -0.38201928  -1.22170788
H   -2.70779684   1.00784131  -1.60366472
O    0.42542552   3.19848049   1.37830305
H    0.39922132   3.89053958   2.03905974
H   -0.42171059   2.75976667   1.45654912
O   -1.73269798   1.52299293   1.38465286
H   -2.44017414   1.34770922   0.76418130
H   -1.89960060   0.92583556   2.11388426
O    0.63818491   0.44979442  -4.11977670
H    0.77413903   0.31383447  -5.05746706
H    0.34550120  -0.40127986  -3.79383092
O    1.52942006  -2.06940760  -0.42459680
H    1.41392164  -2.58641270   0.37264700
H    2.36283833  -1.61597044  -0.29794538
O    0.77181499  -3.21675707   1.98300080
H    0.84781389  -2.57738484   2.69127982
H    0.97072012  -4.05709707   2.39591395
O    0.69124382   3.64312390  -1.33028910
H    0.87061351   4.55600836  -1.55545641
H    0.60977008   3.64273627  -0.37656286
O   -1.49679313  -2.02215824   0.95841049
H   -1.83741700  -1.59111623   1.74225359
H   -0.80179051  -2.59506812   1.28241277
O   -0.20853673  -1.67273820  -2.61476960
H   -1.06173133  -2.05985093  -2.41872226
H    0.41099588  -2.17834661  -2.08867899
O    1.44952879   0.61219388   1.67085126
H    1.33954554   1.56304264   1.66614299
H    2.28554813   0.46511442   1.22850395
O    1.91909888   1.21136995  -1.78283998
H    1.67165326   2.13273662  -1.70482734
H    1.68099750   0.97398634  -2.67904788
K   -0.25670272   0.03630553  -0.44909776
