49
Energy:   -892.21316817
O   -1.33331806  -3.37150556   1.21097390
H   -1.95755179  -4.07719194   1.38000300
H   -1.86093419  -2.57324449   1.23611999
O   -1.92328643   0.68335757   3.30008390
H   -0.99164828   0.47062500   3.24506514
H   -2.08375481   0.81891327   4.23395028
O   -1.56100174   0.95845258  -2.39944650
H   -1.04815752   1.72780367  -2.64707840
H   -1.28309571   0.27745120  -3.01201258
O    3.73941622   0.19119796  -0.54659888
H    4.59773195   0.14175706  -0.96740948
H    3.12503681   0.32082085  -1.26907220
O    0.60050701  -0.00113016   2.47556219
H    1.42645462   0.47615615   2.39656747
H    0.86172537  -0.90789078   2.63612994
O   -3.63251605   1.01884359  -0.59006212
H   -3.08267203   1.02901638  -1.37351595
H   -4.50448466   1.25601585  -0.90573900
O    0.83555683   2.69868651  -0.01000221
H    1.50948457   2.53967643   0.65088284
H    0.03303391   2.83504784   0.49357937
O   -1.66459220   2.19836739   1.00549454
H   -2.47297675   2.04104635   0.51764585
H   -1.85328238   1.88506878   1.89006892
O   -0.24987072  -1.13853333  -3.66399159
H   -0.32703959  -1.62876799  -4.48249436
H   -0.37252735  -1.79521661  -2.97845948
O    1.89990322  -1.81017290   0.01554384
H    1.92612161  -2.20224427   0.88836941
H    2.72747226  -1.33499195  -0.05905117
O    1.05851158  -2.72720990   2.49775449
H    1.32734381  -3.39016647   3.13371807
H    0.24153412  -3.06448910   2.13030052
O    0.42060779   2.89198555  -2.70405704
H    0.57203694   3.73042816  -3.14030819
H    0.60447639   3.06518572  -1.78078791
O   -2.45452966  -0.88410176   1.08220379
H   -3.07146007  -0.38679772   0.54525182
H   -2.44240591  -0.42449725   1.92175638
O   -0.38015321  -2.49273925  -1.28367370
H   -0.84539896  -2.99323360  -0.61338746
H    0.53312216  -2.49893048  -0.99710500
O    2.75772891   1.53912216   1.64878822
H    3.44360603   1.98837484   2.14272796
H    3.22057792   1.11672426   0.92519811
O    1.63723753   0.44121199  -2.32124981
H    1.37609433   1.31949734  -2.59810882
H    1.20505310  -0.14472105  -2.94264416
K   -0.16616898   0.09024728  -0.18400690
