49
Energy:   -883.50740657
O   -2.00236241  -2.34879493   2.36329854
H   -2.48061723  -2.95868101   2.92503080
H   -2.50624750  -1.53616633   2.40764287
O   -3.27085864   0.09514059   2.02057673
H   -4.02145423   0.46626062   2.48437413
H   -3.54232709   0.07392423   1.10292397
O   -1.36328070   1.04257695  -1.75190225
H   -1.14766416   1.95415166  -1.55499390
H   -0.97156178   0.88342263  -2.61065602
O    3.37903293  -0.76639073  -0.15885487
H    3.33930884  -0.45198310  -1.06207228
H    3.19139510  -1.70287549  -0.22225982
O    1.09457284   0.57288611   3.34177066
H    1.71037690   0.96418788   2.72217391
H    1.43604914   0.81255915   4.20327087
O   -3.64529695  -0.04719703  -0.70578907
H   -2.94847113   0.43284894  -1.15325024
H   -4.37621815  -0.04080107  -1.32380616
O   -0.58724710   3.34231940  -0.37536316
H   -0.72041631   2.79700570   0.39996308
H   -1.10746170   4.12824260  -0.20823047
O   -0.87465996   1.38393387   1.56067525
H   -1.72074014   1.00978498   1.80642468
H   -0.31410321   1.22974935   2.32109298
O    0.11480016   0.03406900  -3.87901551
H    0.06179124  -0.13164571  -4.82027028
H    0.20294780  -0.83470305  -3.48697346
O    2.00767427  -3.17980206  -0.09507788
H    1.62234858  -2.94375579   0.74874562
H    2.38387561  -4.04835931   0.04744479
O    0.69543409  -1.85435329   2.00351303
H   -0.18861435  -2.12395367   2.25252276
H    0.93339572  -1.18757834   2.64773138
O    2.10021658   3.25217502  -0.97195644
H    1.18050735   3.44810294  -0.79312958
H    2.50083428   4.10659636  -1.13227326
O   -1.68947967  -1.96084290  -0.35314780
H   -2.47112454  -1.44483024  -0.55061700
H   -1.84578053  -2.30646434   0.52568535
O    0.35729609  -2.14989433  -2.17485301
H   -0.47246588  -2.33548219  -1.73521218
H    0.99075271  -2.72382230  -1.74407319
O    2.41165526   1.43516821   1.12387470
H    2.48721577   2.16115527   0.50462899
H    3.02311286   0.77562828   0.79621858
O    2.17847743   0.74416293  -2.17584848
H    2.24708803   1.68565849  -2.01738537
H    1.63680966   0.67191778  -2.96172921
K    0.54907864  -0.23032036  -0.18757310
