49
Energy:   -881.51449403
O   -0.96497695  -3.51962361   0.24092423
H   -1.49512951  -4.27337816  -0.01796608
H   -1.59877640  -2.81474612   0.37388224
O   -2.37633159   0.19874932   2.88129656
H   -1.52480576  -0.23174184   2.95753936
H   -2.77869990   0.08905383   3.74286402
O   -1.00296623   0.68951457  -3.00312093
H   -0.72856706   1.59998722  -3.11255812
H   -0.33637464   0.18082318  -3.46477076
O    2.47414495   0.43986653   0.62880275
H    2.56926737   0.82834878  -0.24083229
H    2.83218596  -0.44315699   0.53765476
O    0.10431573  -0.79133739   2.42095986
H    0.73307768  -0.16077151   2.77206800
H    0.55305143  -1.63490350   2.47809417
O   -2.85718507   1.00461606  -1.03411481
H   -2.81603130   1.95065023  -0.89426643
H   -2.51904913   0.87813602  -1.92062410
O   -1.88722752   3.60130725  -0.53556917
H   -2.40520810   4.36988661  -0.29637524
H   -1.53949778   3.27809970   0.29560636
O   -0.88242747   2.16916764   1.58742449
H   -1.53004197   1.68487163   2.09956186
H   -0.09988822   2.17988141   2.13855912
O    1.28884957  -0.70182722  -3.67218915
H    1.62571177  -1.19140721  -4.42256715
H    1.17141198  -1.36135176  -2.98847309
O    2.99501228  -2.27514394   0.35575483
H    2.48985295  -2.72327996   1.03414999
H    3.82703607  -2.74737973   0.32474482
O    1.11725552  -3.34039281   2.06916283
H    1.12940866  -4.05950935   2.70079212
H    0.37103626  -3.53238529   1.50124773
O   -0.08305143   3.27597124  -2.61700570
H   -0.01564195   4.05037687  -3.17556073
H   -0.69441974   3.53093658  -1.92602574
O   -2.48498465  -1.24149237   0.51473078
H   -2.63477786  -0.87341998   1.38554451
H   -2.93942795  -0.64442889  -0.07959937
O    0.82399352  -2.06738402  -1.31101805
H    0.21796775  -2.71325327  -0.94795122
H    1.64572771  -2.22058482  -0.84463378
O    1.51362175   1.56769465   2.90719467
H    2.12638515   2.01193788   3.49319878
H    2.04582707   1.30894155   2.15484092
O    1.80115068   1.35774997  -1.85370370
H    1.36343766   2.14499469  -2.17756308
H    1.81394706   0.76418719  -2.60453745
K   -0.23507994   0.23294196  -0.25489794
