49
Energy:   -884.70540997
O   -2.14874197  -1.43420345  -3.41192608
H   -2.97501609  -1.73615647  -3.78918899
H   -1.80052519  -2.19898251  -2.95357041
O   -2.24466741  -1.26347277   2.82687783
H   -1.48166586  -1.11189964   3.38462873
H   -2.92853291  -1.55510483   3.42979620
O   -0.33002805   2.28464674  -2.89572514
H   -0.08586759   1.56553562  -3.47838860
H   -0.58506064   2.99475259  -3.48474119
O    3.32234304   2.18858256   1.06854487
H    3.96167369   2.90090369   1.07785977
H    2.68271268   2.44884984   0.40569814
O    0.16576898  -0.67925074   4.09490939
H    0.50010719   0.12915694   3.70641635
H    0.41310881  -0.62217504   5.01783800
O   -1.76070966   0.44586543  -1.40727298
H   -2.02887627  -0.20801917  -2.05283742
H   -1.42327151   1.17394295  -1.92906840
O   -0.59987854   3.34585692   1.56488455
H   -1.08217599   4.09920806   1.90559422
H   -1.25191133   2.64701390   1.51288921
O   -1.92602005   0.99397859   1.27616300
H   -2.24368285   0.26526312   1.80935710
H   -2.22199118   0.78924471   0.38919233
O    0.07922711  -0.05860805  -4.29262268
H    0.34088659  -0.27632610  -5.18725389
H   -0.73821483  -0.53814946  -4.15823306
O   -0.90022346  -3.36847718  -1.92619402
H   -1.03151858  -3.17447216  -0.99810162
H   -0.82456195  -4.32194499  -1.96369485
O    1.33035506  -2.14832966   2.03959616
H    1.11484749  -1.77806470   2.89557058
H    2.19020080  -1.78369409   1.82998211
O    1.04571971   2.46206150  -0.49057136
H    0.66282979   2.55328924  -1.36309910
H    0.46462658   2.96476246   0.08026519
O   -0.99049304  -2.50202416   0.66673768
H   -1.61856202  -2.24491121   1.34175926
H   -0.18712788  -2.69836391   1.14869927
O    1.05060714  -1.37521595  -2.04360606
H    0.53623433  -2.18084271  -2.09477226
H    0.88323528  -0.93044262  -2.87450629
O    1.09770804   1.39347798   2.56382457
H    0.53328489   2.15168275   2.41288126
H    1.97062380   1.68877043   2.30487999
O    3.18463655  -0.53623913   0.71104821
H    3.46408329   0.36763647   0.85647950
H    3.79826969  -0.87523466   0.05930573
K    0.46376165  -0.13155310   0.25435024
