49
Energy:   -889.64651225
O   -0.77750406  -3.37743252   0.84186979
H   -1.26250891  -4.20264974   0.84619234
H   -1.45384732  -2.70180775   0.79367408
O   -2.71381352   0.33740145   2.96013789
H   -1.77841555   0.26304765   3.14917228
H   -3.12797759   0.40398072   3.82052569
O   -1.24653374   1.13730502  -2.41058119
H   -0.71065993   1.91407654  -2.57088434
H   -0.93862366   0.49681931  -3.05183098
O    3.20532310  -1.65348172  -1.34463184
H    4.03828194  -1.89210636  -1.75141150
H    2.95270531  -0.83720728  -1.77603899
O   -0.02008847   0.09003617   2.80698728
H    0.68815664   0.72410152   2.91915604
H    0.39678339  -0.76135438   2.93959133
O   -3.57697064   0.73217797  -1.06142596
H   -2.89968858   0.91646597  -1.71223991
H   -4.39990669   0.92777617  -1.50947668
O    0.55788598   2.91817979   0.34374515
H    1.10322593   2.81010842   1.12294780
H   -0.33663378   2.96398719   0.68133650
O   -2.02703193   2.02746173   0.86945978
H   -2.69614220   1.81264003   0.21955600
H   -2.35375253   1.64735657   1.68493851
O    0.03270981  -0.90031204  -3.75512771
H   -0.04125424  -1.41693184  -4.55753979
H    0.06870796  -1.55049207  -3.05355669
O    2.44223473  -0.54075051   1.03263173
H    2.18776785  -1.27774527   1.58789490
H    2.89726585  -0.94341260   0.29300901
O    1.13772991  -2.41860192   2.59004131
H    1.43195678  -3.07265943   3.22397440
H    0.48700499  -2.87613467   2.05763854
O    0.74816998   3.09317851  -2.38442799
H    0.92671006   3.95181431  -2.76796397
H    0.74118511   3.24894696  -1.44001323
O   -2.34301419  -1.12632306   0.63070989
H   -2.92254699  -0.69902418   0.00000453
H   -2.59203273  -0.75341993   1.47638410
O    0.44649081  -2.16503482  -1.33055262
H    0.10900102  -2.79027878  -0.68914598
H    1.39647783  -2.27798309  -1.29894250
O    2.09807402   1.83269472   2.40981165
H    2.81346874   2.20315434   2.92672742
H    2.49353056   1.09343481   1.94792339
O    1.85879901   0.55091875  -2.26326936
H    1.71866150   1.48713537  -2.40501484
H    1.34730230   0.12485441  -2.95107176
K   -0.01096042   0.26240565  -0.06272405
