31
Energy:   -383.17301105
Na  -0.09838398   0.05212778   0.50601347
C    2.32932144  -4.43735916   0.96526172
H    2.31480516  -4.68412950   2.00631593
H    3.33992337  -4.28324550   0.64930000
H    1.89802691  -5.23884853   0.40267936
C    1.51644297  -3.15045496   0.73136821
N    0.91121800  -2.19229628   0.55722386
C   -0.24488854  -2.00797047  -4.22303337
H   -1.19594018  -2.37117708  -4.55239931
H    0.44612663  -2.82258242  -4.16135281
H    0.12042048  -1.28232884  -4.91937570
C   -0.39640261  -1.35717254  -2.83555164
N   -0.50921172  -0.87262390  -1.80250843
C   -1.41178694   3.24305272  -3.24832922
H   -0.62749329   3.82363383  -3.68731581
H   -2.26865259   3.86375828  -3.08893992
H   -1.67093687   2.43913948  -3.90518835
C   -0.93435446   2.67113101  -1.90052961
N   -0.57888429   2.24530931  -0.89703153
C    3.04598240   3.59940750   1.83740794
H    3.45239020   3.73657325   0.85714346
H    3.83704614   3.38171198   2.52423100
H    2.54371453   4.49321830   2.14355877
C    2.04540701   2.42888868   1.81911584
N    1.30043316   1.55738422   1.80549655
C   -3.50019353  -0.57277791   4.15201713
H   -3.19323346  -1.49090729   4.60777380
H   -4.51841588  -0.65551140   3.83377586
H   -3.41156700   0.22418674   4.86046034
C   -2.60406190  -0.27931638   2.93446696
N   -1.93685116  -0.06082093   2.02794551
