31
Energy:   -383.05403343
Na   0.04031823   0.07850342   0.61009359
C   -1.89793695   3.27734464  -2.87125005
H   -1.81600134   2.86030970  -3.85322184
H   -1.15369831   4.03523684  -2.74238052
H   -2.86988253   3.70696610  -2.74616496
C   -1.68813481   2.16842929  -1.82344769
N   -1.53192758   1.34279140  -1.04331120
C   -0.24322213   1.52047984   5.44749510
H   -0.72605394   0.75421490   6.01724212
H   -0.80755687   2.42679449   5.51834100
H    0.74223420   1.68300414   5.83137107
C   -0.15440539   1.08499868   3.97302307
N   -0.08827729   0.76076316   2.87521163
C   -3.61902513  -3.15441031  -0.84957793
H   -4.54526696  -2.66331451  -0.63556584
H   -3.61427829  -4.12180337  -0.39238296
H   -3.50756801  -3.25982964  -1.90852229
C   -2.45317408  -2.31717181  -0.29152507
N   -1.58514497  -1.69380968   0.12397065
C    2.83321572   2.73234387  -2.77896312
H    2.95953009   2.26873898  -3.73500463
H    3.79085908   2.99610624  -2.38115954
H    2.23640584   3.61395009  -2.88614308
C    2.13208570   1.75111206  -1.82125710
N    1.61006254   1.02054037  -1.10820143
C    2.88611316  -4.28520104   0.53928014
H    2.21667699  -5.03319140   0.90977416
H    3.78822819  -4.29741955   1.11455250
H    3.11437984  -4.48730415  -0.48636490
C    2.22269500  -2.90018869   0.65424592
N    1.72875002  -1.86898404   0.73984316
