31
Energy:   -385.72306083
Na   0.25960994  -0.54459179  -0.33072479
C   -3.53777230  -3.60544934   0.82332041
H   -3.09708492  -4.57939491   0.77722448
H   -4.36597254  -3.55636663   0.14761756
H   -3.87849082  -3.41492453   1.81956851
C   -2.48966164  -2.54854962   0.42831785
N   -1.70929561  -1.76163974   0.13422049
C    2.12956543   1.01075588  -4.49920996
H    2.80539582   1.82422793  -4.33667786
H    1.17999720   1.39281902  -4.81105452
H    2.52201233   0.36732333  -5.25873552
C    1.95871281   0.21613938  -3.19116026
N    1.83150526  -0.37548872  -2.21725781
C    1.05245576   3.05485845   3.03708029
H    1.87931154   2.73399864   3.63562742
H    0.21579375   3.26751889   3.66927591
H    1.32455836   3.93736065   2.49666458
C    0.67494436   1.94043920   2.04352360
N    0.39386997   1.11070341   1.30377549
C    3.24949742  -3.25234421   2.70074311
H    2.80836342  -3.37204077   3.66820045
H    4.16072382  -2.69867385   2.79026773
H    3.45666445  -4.21481293   2.28165495
C    2.27474838  -2.49170525   1.78265124
N    1.54900341  -1.92537497   1.09909011
C   -3.17109084   3.25498864  -1.72528401
H   -3.46080912   3.63605691  -0.76833549
H   -4.00350564   2.75822459  -2.17828529
H   -2.85506220   4.06378592  -2.35048153
C   -2.01090095   2.25743881  -1.55077392
N   -1.14708685   1.51471762  -1.42084323
