31
Energy:   -383.92533399
Na  -0.07733489   0.12312679  -0.45458719
C   -0.60818389  -2.07020275  -5.06369395
H   -1.62812700  -1.93321973  -5.35669887
H   -0.39016097  -3.11633751  -5.00922230
H    0.03482795  -1.60888906  -5.78384986
C   -0.37947426  -1.42564959  -3.68389574
N   -0.20918954  -0.94575046  -2.65657324
C    4.97095679  -0.31399602  -0.15790830
H    5.57864654  -0.73279432  -0.93264782
H    5.18378781  -0.80649756   0.76785856
H    5.18331871   0.73044463  -0.06332900
C    3.48437521  -0.50561957  -0.51139889
N    2.37754764  -0.64829202  -0.77458871
C    1.11583460   3.60995688   2.97792202
H    2.03783297   3.48956421   3.50737908
H    0.29952099   3.35319935   3.62026675
H    1.01555590   4.62768540   2.66316508
C    1.10805390   2.68800130   1.74441589
N    1.10226081   2.00156346   0.82601450
C   -4.16805553   2.84450437   0.84094127
H   -4.33400838   3.69898418   0.21866795
H   -4.09582914   3.15560825   1.86216446
H   -4.98414641   2.16092014   0.73320376
C   -2.85859635   2.15078421   0.42181241
N   -1.88364447   1.63427803   0.10975192
C   -1.41305848  -4.17626674   1.87602427
H   -0.90187915  -4.89961999   1.27572771
H   -2.46632793  -4.36067081   1.83706661
H   -1.07522642  -4.25024802   2.88859296
C   -1.11907903  -2.76329454   1.33872953
N   -0.90019797  -1.71127250   0.93868917
