65
Energy:  -1632.16390530
O   -1.23267762   0.73364614  -3.27237379
H   -1.91715904   0.15187074  -2.94183723
H   -0.64084055   0.85408887  -2.52977413
O   -2.30478967   3.15644651  -2.66939253
H   -1.56320279   3.50140830  -2.17211784
H   -1.97400731   2.35019445  -3.06533758
O    4.20768021  -1.13516357  -1.44676776
H    3.98187990  -1.19790727  -0.51870026
H    3.62007465  -1.75484000  -1.87914801
O   -3.42891191   1.57910716  -0.75969155
H   -2.65091480   1.14132728  -0.41429159
H   -3.08886930   2.19923760  -1.40470404
O   -0.08218579   3.70997602  -1.21917992
H   -0.25822853   3.85178368  -0.28905552
H    0.28348354   2.82642414  -1.26223641
O   -3.31729726  -0.73539719  -2.26563511
H   -2.94396187  -1.36771259  -1.65160762
H   -3.52328083   0.02890241  -1.72744486
O   -0.67633333   3.79390856   1.45555593
H   -0.16837746   2.98346452   1.49288067
H   -1.58430780   3.51356413   1.57053941
O    0.64324373  -3.34074909  -0.44521595
H    1.16047553  -3.79459109   0.22016406
H    0.71885062  -2.41417543  -0.21723195
O    0.28311036  -2.11022191   2.76225352
H   -0.65167431  -2.30407079   2.69274027
H    0.50096202  -1.67934633   1.93574355
O   -2.03381239  -2.26248305  -0.31351301
H   -1.20576722  -2.72633262  -0.43767666
H   -1.77724298  -1.36012269  -0.12338207
O   -2.42323737   0.35221810   2.64685478
H   -1.63432001   0.46678069   3.17668179
H   -2.10687892   0.34649963   1.74346312
O    3.32495491   1.48923775  -1.32969333
H    3.63567638   0.60052670  -1.50254205
H    2.37068409   1.41443351  -1.33152914
O   -3.25606418   2.80340744   1.70620491
H   -3.42989791   2.49358182   0.81737323
H   -3.02957956   2.01278327   2.19594973
O    0.04370068   0.46276161   3.77517058
H    0.23446336  -0.45657987   3.58901822
H    0.32148774   0.92982636   2.98718790
O   -2.40456557  -2.37972275   2.40815234
H   -2.37979954  -2.45152102   1.45397023
H   -2.54248031  -1.44734985   2.57516176
O    2.27813737  -3.74438675   1.81136841
H    1.56147893  -3.33408767   2.29540064
H    2.87072250  -3.02237755   1.60213785
O    2.33884928  -2.81968042  -2.56304951
H    1.74812612  -3.07848041  -1.85573023
H    1.93597031  -2.03637351  -2.93768354
O    3.35804777  -1.19648805   1.13634740
H    3.57092699  -0.30571648   1.41462835
H    2.44806804  -1.14551647   0.84382281
O    3.32736883   1.56230325   1.41179457
H    3.45756567   1.66046493   0.46858467
H    2.37851315   1.60843939   1.52916669
O    1.25480049  -0.47055151  -3.37409142
H    0.40340772  -0.26899893  -3.76234230
H    1.27357944   0.03469462  -2.56131498
S    0.16896984   0.45774038   0.18578903
O    0.56767111   1.39803416   1.27067837
O    0.82340053  -0.86238765   0.40733467
O   -1.31110221   0.28633638   0.19615263
O    0.59590995   1.00897861  -1.13100958
