65
Energy:  -1632.79372682
O   -1.23168603   0.60401569  -3.30962770
H   -2.03281079   0.28737784  -2.89228917
H   -0.66280482   0.85111573  -2.58055460
O   -2.26609295   3.07134928  -2.39776366
H   -1.51065085   3.42898664  -1.93125042
H   -1.91691383   2.32316276  -2.88203912
O    3.49235980  -1.16258811   0.25787185
H    3.62294162  -0.58009746   1.00612641
H    2.54532703  -1.16596458   0.11876982
O   -3.26121151   1.75906526  -0.21191497
H   -2.53606886   1.15677349  -0.04564830
H   -2.94105334   2.33405097  -0.90698477
O   -0.09633588   3.77348521  -0.93408287
H   -0.18785382   3.80038385   0.01835231
H    0.18597101   2.87855830  -1.12286978
O   -3.61045137  -0.15138601  -2.14376767
H   -3.42816524  -0.92325843  -1.60784176
H   -3.66831547   0.56863113  -1.51570802
O   -0.35385089   3.37411000   1.79884576
H    0.13778399   2.56302627   1.66973273
H   -1.22017778   3.08637252   2.08679836
O   -1.01486409  -3.66242827  -1.65625956
H   -0.50718597  -3.73919591  -0.84842201
H   -0.51884889  -3.04483893  -2.19364600
O    0.25136284  -3.42371870   0.76320598
H   -0.51719041  -3.25533750   1.30837158
H    0.47918647  -2.56840293   0.39883916
O   -2.76909938  -2.03595809  -0.37154145
H   -2.19373363  -2.61198277  -0.87491174
H   -2.22072903  -1.28349650  -0.14945279
O   -1.56876362  -0.22235753   2.93442928
H   -1.49435252  -0.10124178   1.98784289
H   -0.66524037  -0.20704641   3.25009231
O    3.10981110   0.88517608  -1.72010665
H    2.16312918   1.02097842  -1.68032086
H    3.26914936   0.13613937  -1.14583566
O   -2.78354395   2.27912251   2.48195801
H   -3.05568022   2.14648546   1.57389352
H   -2.43065707   1.43162175   2.75296568
O    1.26998787  -0.31786699   3.39523410
H    1.57417275  -1.16863777   3.07917638
H    1.14098530   0.20097578   2.60126158
O   -2.03162292  -2.81865603   2.13668022
H   -2.44974591  -2.61682720   1.29961981
H   -1.90880779  -1.96660895   2.55520628
O    2.33090082  -2.64609226   2.34304140
H    1.61430598  -3.05238042   1.85554410
H    2.90473220  -2.28319901   1.66831339
O    0.42577635  -1.66160144  -2.86919064
H    0.68950976  -1.45596104  -1.97231352
H   -0.11925474  -0.92093534  -3.13487221
O    3.84400105   0.37780178   2.49758008
H    3.01921116   0.23195948   2.96091961
H    3.68348435   1.15350500   1.96022474
O    3.17574423   2.29135130   0.69976484
H    3.31470715   2.01388821  -0.20573800
H    2.29386418   1.98549876   0.91183476
O    2.83143421  -0.75620269  -3.94757826
H    2.00586247  -1.15415354  -3.67135684
H    3.03008532  -0.11647188  -3.26382824
S    0.20481246   0.29374286  -0.01049164
O    0.83496854   0.99639531   1.14245364
O    0.87040938  -1.02383308  -0.21315981
O   -1.24322949   0.08094454   0.26877778
O    0.35710140   1.12146466  -1.24003819
