65
Energy:  -1632.14179656
O   -0.95251350  -0.34275679  -3.26861096
H   -0.77024645  -1.26160130  -3.07179805
H   -0.57391828   0.13976066  -2.53371340
O   -0.87730026   3.32601351  -1.06061938
H   -0.91886360   3.46652565  -0.11470148
H   -0.49092358   2.45560099  -1.15719554
O    3.85237799  -0.96759767  -1.38078573
H    3.82880424  -0.70165348  -0.46157421
H    3.23620183  -1.69807908  -1.43515195
O   -3.11511748   1.56948118  -0.51453816
H   -2.54296683   0.88235610  -0.17287371
H   -2.51578735   2.24419215  -0.83359986
O    2.04587470   3.63517993  -1.26103267
H    1.09038242   3.65672802  -1.20809837
H    2.24140112   2.83258192  -1.74460036
O   -3.56303718  -0.42109041  -2.41515641
H   -2.70012273  -0.38230478  -2.82759570
H   -3.56641626   0.30936562  -1.79656574
O   -1.09133860   3.44546337   1.66268775
H   -0.47544185   2.71281380   1.65139013
H   -1.91695322   3.06042632   1.95652241
O   -0.61531334  -2.91663547  -2.43384460
H   -1.24498886  -2.79753349  -1.72282048
H    0.23652976  -2.94323206  -1.99808343
O    0.64144928  -3.15764115   1.81264418
H   -0.29758307  -3.22073671   1.98719803
H    0.73371033  -2.36904460   1.27800857
O   -2.58102854  -2.29871187  -0.59271259
H   -2.12651033  -1.57253349  -0.16573483
H   -3.12395190  -1.88182306  -1.26179390
O   -2.24755087  -0.40615471   2.97345321
H   -1.44615907  -0.19201835   3.45110230
H   -2.00010516  -0.34668953   2.05070386
O    2.42193528   1.15628368  -2.45287547
H    2.98632697   0.45216122  -2.13364916
H    1.59106942   1.02343341  -1.99653724
O   -3.40168368   2.03943883   2.20515761
H   -3.43693851   1.88569726   1.26104296
H   -3.05765164   1.22344017   2.56850318
O    0.26170174   0.28468999   3.85664556
H    0.95234401  -0.37777881   3.83714720
H    0.34791047   0.74587880   3.02231662
O   -2.11158274  -3.06388605   2.11590397
H   -2.37391954  -2.92939778   1.20523160
H   -2.20468412  -2.20221983   2.52222318
O    2.23771995  -1.60613971   3.46863152
H    1.70076095  -2.22495305   2.97368008
H    2.73131429  -1.12944747   2.80127780
O    1.81518611  -2.92674283  -1.11799235
H    1.78752730  -3.63712194  -0.47703341
H    1.50282305  -2.15908837  -0.63906877
O    3.37484940  -0.29093088   1.25406453
H    3.33654577   0.66540805   1.26750106
H    2.50995177  -0.56144473   0.94583377
O    2.80306296   2.41675558   1.12944023
H    2.68232396   2.92665356   0.32840465
H    1.93457915   2.06349835   1.32225373
O    1.18670467   0.46117396  -4.83534628
H    0.37354889   0.16316207  -4.42767184
H    1.73348487   0.74319478  -4.10204722
S    0.02619483   0.23337969   0.26469341
O    0.39500247   1.23412869   1.30516559
O    0.94185200  -0.93851167   0.35603118
O   -1.37786476  -0.21521230   0.48259693
O    0.14578958   0.85311403  -1.08502006
