65
Energy:  -1629.73109830
O   -0.41394418   0.05846910  -3.14323492
H   -1.34786657  -0.09492033  -3.00008293
H   -0.11421101   0.48187078  -2.33879543
O   -0.06808645   3.35246703  -2.13097586
H    0.33044467   3.13710585  -2.97419846
H    0.10214685   2.58667637  -1.58250787
O    3.78074202  -0.88616043  -2.02087284
H    3.87108398  -0.89534567  -1.06798995
H    2.92957680  -1.29206527  -2.18516182
O   -3.19720012   1.57740830  -0.22040917
H   -2.47259780   1.02255469   0.06824423
H   -2.80203286   2.43933314  -0.35140630
O   -1.97905879   4.01414749  -0.30872913
H   -1.50447848   3.88842347   0.51297572
H   -1.31754515   3.89004190  -0.98933867
O   -3.00738853  -0.35661367  -2.25653078
H   -2.87939880  -1.09451076  -1.66041137
H   -3.15825860   0.39334052  -1.68117109
O   -0.81383466   3.35044268   2.08402133
H   -0.19994845   2.62479970   1.97080550
H   -1.63407810   2.93224618   2.34583086
O   -0.34319816  -3.87943859  -1.11715127
H    0.24875597  -4.18385008  -0.42928805
H    0.17012846  -3.23873791  -1.60932021
O    1.64487546  -4.39000360   0.72983648
H    1.27301954  -3.88193188   1.45082064
H    2.27299962  -3.79708370   0.31735876
O   -2.36518390  -2.21771822  -0.29160703
H   -1.65437752  -2.78751096  -0.58541373
H   -1.92513831  -1.42868032   0.02463799
O   -2.05869900  -0.25480842   3.11150219
H   -1.22680418  -0.17937860   3.57893475
H   -1.82625486  -0.14791300   2.18912757
O    2.84431178   1.67032629  -1.90476917
H    3.24792295   0.80876261  -2.00983053
H    1.98365253   1.48778534  -1.52770644
O   -3.25356121   2.12442230   2.50618285
H   -3.38511511   1.96563971   1.57145642
H   -2.90874522   1.29778630   2.84383166
O    0.54143347  -0.22064609   3.93043641
H    0.68527738  -1.09167315   3.56050041
H    0.71987560   0.37991066   3.20675012
O   -2.13765564  -2.87433871   2.36823726
H   -2.32368262  -2.76023934   1.43624630
H   -2.22786091  -1.99696325   2.74013396
O    0.57727868  -2.61127012   2.47587867
H   -0.36658921  -2.76787472   2.44723834
H    0.74925334  -2.04353675   1.72465608
O    1.22795049  -1.90399354  -2.11671557
H    1.18651575  -1.60966620  -1.20683293
H    0.66353297  -1.29433923  -2.59209576
O    3.69943934  -0.79822737   0.68905052
H    3.76689862   0.13725737   0.88022945
H    2.75825440  -0.97074937   0.66377366
O    3.33379766   1.91497622   0.89740182
H    3.20045443   2.01903683  -0.04473555
H    2.45446120   1.78047066   1.25082436
O    1.27538162   2.05446474  -4.17332422
H    0.65392760   1.34803330  -3.99730897
H    1.93481133   1.97115824  -3.48452502
S    0.26479255   0.31394743   0.43145993
O    0.74469709   1.14602045   1.57051486
O    1.02453668  -0.96735916   0.39766230
O   -1.18697212   0.02615040   0.60365818
O    0.47690853   1.05097805  -0.84599563
