65
Energy:  -1631.71123242
O   -1.28882642  -0.32104338  -3.58047713
H   -1.20517228  -1.23646735  -3.31358241
H   -0.93552879   0.17707911  -2.84339734
O   -1.81396348   3.14518238  -1.41484614
H   -1.58759996   3.43191876  -0.53010118
H   -1.19588660   2.43913019  -1.60379886
O    3.43829710  -0.64464944  -0.75781643
H    2.55086157  -0.67736693  -0.40057757
H    3.48500704  -1.39260188  -1.35331385
O   -3.55408492   1.28828971  -0.44382222
H   -2.85530956   0.69924962  -0.15925830
H   -3.09727189   2.01831582  -0.86169250
O    2.57857582   2.76795235   0.16584472
H    1.76026364   2.36117510   0.45067678
H    2.67017781   2.50678064  -0.75046869
O   -3.83601341  -0.56616482  -2.46384860
H   -3.02485102  -0.42005491  -2.95057164
H   -3.84796916   0.12691702  -1.80375280
O   -1.22331450   3.50266199   1.23942988
H   -0.56163053   2.81381013   1.17706584
H   -1.96560038   3.08369522   1.67498740
O   -1.04298298  -2.87876281  -2.72019821
H   -0.11799660  -2.85475810  -2.47513531
H   -1.51326410  -2.79954680  -1.89026307
O    0.70267795  -2.93217757   1.51648139
H   -0.22688528  -2.97188093   1.74135399
H    0.76406737  -2.22581885   0.87342575
O   -2.70170715  -2.29009089  -0.58706190
H   -2.21473867  -1.54188085  -0.24169934
H   -3.28424793  -1.91350906  -1.24665588
O   -1.80745783  -0.15516961   2.91687748
H   -0.96566263   0.15203430   3.25338669
H   -1.70213175  -0.14942069   1.96550730
O    2.37191213   1.39759337  -2.31191753
H    2.79470814   0.71499307  -1.79082999
H    1.44762059   1.34772747  -2.06813404
O   -3.35015322   2.05137150   2.21015181
H   -3.55353327   1.79406343   1.31089603
H   -2.87143322   1.30508687   2.57087090
O    0.82255244   0.77823466   3.40285838
H    1.28055163  -0.06190802   3.37778143
H    0.69236027   1.00814674   2.48284627
O   -1.99470117  -2.85704795   2.12803285
H   -2.34644944  -2.74778517   1.24453602
H   -1.98836324  -1.97294749   2.49485439
O    2.22146414  -1.55232363   3.29644093
H    1.71758509  -2.10330130   2.69747401
H    2.99819835  -1.30194308   2.79621559
O    1.60784864  -2.35730800  -2.26898047
H    1.33831103  -1.86558386  -1.49323006
H    1.57679895  -1.71827495  -2.98095275
O    4.34109754  -0.54187066   1.86592846
H    4.10125140  -0.57548635   0.93987465
H    4.07291248   0.33140855   2.15174666
O    3.32519394   1.86216896   2.67254667
H    3.13005681   2.25174296   1.82026418
H    2.47133246   1.60361094   3.01938982
O    1.42043412  -0.40452148  -4.17561470
H    0.47170748  -0.29695643  -4.10794367
H    1.78093696   0.30461548  -3.64326677
S   -0.08537792   0.32714629  -0.13566020
O    0.40639160   1.34434204   0.83571797
O    0.86069101  -0.82340100  -0.17163938
O   -1.43261234  -0.15060229   0.28483443
O   -0.17598197   0.93824642  -1.49155384
