65
Energy:  -1626.50721255
O   -1.46019171   0.20961572  -3.25182949
H   -2.35303033   0.01489436  -2.96695295
H   -0.90267445  -0.26516732  -2.63539830
O   -1.41703470   2.73020601  -2.16008510
H   -0.48268080   2.86519006  -2.00199040
H   -1.46445316   1.88927928  -2.61486589
O    4.25199789  -0.19611893  -1.53936101
H    4.01959348  -0.51176026  -0.66609669
H    3.53172394  -0.48634873  -2.09900728
O   -2.94591090   1.64673104  -0.17379245
H   -2.38578061   0.91727569   0.09150134
H   -2.41190335   2.14738082  -0.79057246
O    1.36450347   2.53251599  -1.89509486
H    2.30774921   2.64036981  -1.77308304
H    1.10140197   1.92326512  -1.20529574
O   -3.88468515  -0.17551991  -2.01740643
H   -3.68924412  -0.98106685  -1.53873246
H   -3.70164875   0.52565943  -1.39204488
O    0.09732373   2.30296604   2.35530324
H    0.25259986   1.86846483   1.51665560
H   -0.85496694   2.38117634   2.41237760
O   -0.91781624  -3.52528035  -1.50650372
H   -0.61730371  -3.80988903  -0.64341510
H   -0.51136227  -2.66770791  -1.63138975
O   -0.21901718  -3.92299490   1.11715014
H   -1.02774898  -3.71564517   1.58532832
H    0.25455241  -3.09214210   1.07656288
O   -3.03434840  -2.23441579  -0.40104871
H   -2.41438980  -2.78207280  -0.88266576
H   -2.49964886  -1.52752869  -0.03960871
O   -2.16934486  -0.50901819   3.05239700
H   -1.38279494  -0.32106115   3.56449387
H   -1.87712414  -0.47260743   2.14162087
O    4.01157668   2.50520615  -1.16722024
H    4.17701991   1.59386913  -1.40872642
H    3.68401449   2.45976479  -0.26896084
O   -2.63956906   2.16139422   2.51073117
H   -2.83599801   2.10614270   1.57553344
H   -2.59797966   1.25036020   2.80145301
O    0.13211909   0.32874243   4.26473309
H    0.78936827  -0.31155661   3.99220328
H    0.20464358   1.03514069   3.62288144
O   -2.65054246  -3.12222538   2.18030513
H   -2.90765987  -2.88918569   1.28822050
H   -2.49701799  -2.28230815   2.61297260
O    1.92382800  -1.50391843   3.33410097
H    1.39382896  -1.60332665   2.54324645
H    2.79811585  -1.28573129   3.01122798
O    2.12842939  -0.90457591  -3.10675987
H    1.41648163  -1.04188649  -2.48185344
H    1.83027257  -0.17839882  -3.65448352
O    3.49507950  -0.76144375   1.07060748
H    3.35978477   0.17464359   1.21780696
H    2.61342333  -1.11639439   0.95692242
O    2.82810135   1.91837686   1.26133059
H    2.10318896   1.54418069   0.76062000
H    2.40708285   2.36523452   1.99569665
O    0.92774049   1.24880260  -4.30061964
H    0.07231092   0.85613307  -4.12660026
H    1.12733766   1.74953316  -3.50963182
S    0.05544082  -0.47225845   0.03177121
O    0.69384252   0.87275487   0.09078340
O    0.81985863  -1.42283199   0.88744367
O   -1.34749966  -0.37819577   0.52473188
O    0.05556179  -0.96076093  -1.37587410
