65
Energy:  -1630.27823445
O   -0.72034137   0.70516221  -3.16923686
H   -1.57479693   0.29142563  -3.04692751
H   -0.21786778   0.45154650  -2.39500742
O   -1.76775683   3.16009798  -2.32559818
H   -1.19224562   3.54009686  -1.66180638
H   -1.28658035   2.40062003  -2.65407082
O    4.09807471  -1.46921315  -1.21286455
H    3.90963927  -1.25557467  -0.29903605
H    3.28589558  -1.85459038  -1.54162174
O   -3.26855703   1.69413139  -0.60812221
H   -2.57330358   1.13888123  -0.25520332
H   -2.81673168   2.30075835  -1.19471358
O   -0.32676697   4.17851970  -0.21902222
H   -0.74019235   4.47569061   0.59153362
H    0.06982788   3.33749891   0.00819660
O   -3.18520471  -0.32185715  -2.49783967
H   -2.96686539  -1.06038810  -1.92939282
H   -3.36855366   0.39884842  -1.89518016
O   -0.71839335   3.06088355   2.68376852
H   -0.23585548   2.67315220   1.95366342
H   -1.63626847   2.86483832   2.49587657
O   -0.16548289  -3.65701317  -0.84441966
H    0.13245825  -3.52914459   0.05619822
H    0.48558904  -3.20292558  -1.37934176
O    0.38707068  -3.09751331   1.79539191
H   -0.53835929  -3.14320825   2.03564840
H    0.55920219  -2.16301205   1.68002302
O   -2.38800662  -2.11705321  -0.56004179
H   -1.62905606  -2.66468186  -0.76086198
H   -2.01383795  -1.29886291  -0.23324783
O   -2.41793158  -0.19059635   2.76939430
H   -1.65220942   0.00608003   3.30904218
H   -2.10587488  -0.10242278   1.86879567
O    2.98734058   0.82145465  -2.15069330
H    3.54128623   0.08267328  -1.89854620
H    2.13482702   0.62588567  -1.76184208
O   -3.30330074   2.32697636   2.10214730
H   -3.37707827   2.21818753   1.15401560
H   -3.12403381   1.44629358   2.43153016
O   -0.03660893   0.58373370   3.81828591
H    0.39824244   0.15396795   3.08178232
H   -0.15686383   1.48885883   3.53102454
O   -2.35273539  -2.86560293   2.09728569
H   -2.47958573  -2.72531440   1.15895740
H   -2.41504968  -1.99101970   2.48128172
O    3.09476601  -3.08248702   2.65650958
H    2.16879448  -3.18267987   2.43567034
H    3.33957346  -2.23470731   2.28560431
O    1.62735440  -2.11639090  -2.26173696
H    1.27471478  -1.39761782  -1.73710146
H    1.65650308  -1.77056087  -3.15380410
O    3.44948943  -0.56590368   1.31857194
H    3.61101305   0.35490436   1.11301287
H    2.49825597  -0.62936381   1.40435985
O    3.23664432   2.03643450   0.33330617
H    3.24488906   1.76337035  -0.58408133
H    2.30798586   2.10420987   0.55518862
O    1.63739451  -0.24953759  -4.33793904
H    0.75949998   0.06187615  -4.11758811
H    2.21285925   0.19426400  -3.71495242
S    0.16146476   0.36874829   0.34526875
O    0.47738522   1.79249361   0.65062680
O    0.78481608  -0.51008054   1.37443978
O   -1.31580326   0.17463387   0.35520906
O    0.69946099   0.01794622  -0.99920066
