65
Energy:  -1641.24515080
O   -0.84089501   0.78213347  -3.30465825
H   -1.58697782   0.22148979  -3.09188853
H   -0.37119783   0.88110293  -2.47651488
O   -2.03068895   3.11167557  -2.49151240
H   -1.34110103   3.46024389  -1.92653410
H   -1.62531351   2.36483696  -2.93211957
O    4.05505396  -1.24135634  -1.30781446
H    3.95840553  -1.21733464  -0.35580927
H    3.29839851  -1.74173820  -1.61330155
O   -3.25563412   1.50890985  -0.67228390
H   -2.53028280   0.99197839  -0.32174263
H   -2.84052476   2.12978707  -1.27097208
O   -0.00765146   3.72111311  -0.79445976
H   -0.19824448   3.77848443   0.14181727
H    0.29323035   2.82163274  -0.92344445
O   -3.11252282  -0.54855740  -2.47942338
H   -2.92076001  -1.26613629  -1.87565239
H   -3.33930369   0.18830075  -1.91211188
O   -0.62339434   3.46675236   1.89956624
H   -0.11229111   2.66904465   1.76293630
H   -1.53492851   3.17685080   1.86358882
O   -0.33328218  -3.91765671  -0.98062512
H   -0.05461854  -3.84715246  -0.06760400
H    0.33210443  -3.43642661  -1.47246870
O    0.35091214  -3.24763123   1.58464367
H   -0.51308274  -3.07835035   1.96026141
H    0.58397736  -2.43182259   1.14150858
O   -2.41526389  -2.23845029  -0.42377101
H   -1.69942076  -2.81661367  -0.68745182
H   -1.98227984  -1.42978450  -0.15024533
O   -2.26914636   0.05993598   2.83455698
H   -1.55535570   0.44803067   3.34063726
H   -1.94340268   0.04239316   1.93465968
O    3.03205861   1.22566994  -1.86273520
H    3.40400688   0.36870219  -1.65418637
H    2.12052489   1.16777594  -1.57640250
O   -3.17876680   2.46959815   1.89465782
H   -3.33031399   2.23608909   0.97883097
H   -2.98104135   1.63770375   2.32487659
O   -0.18899752   1.46096672   3.94386447
H    0.28225521   1.20083781   3.15235600
H   -0.45052580   2.36714961   3.78056295
O   -2.24320881  -2.66648592   2.29610535
H   -2.44692871  -2.59446957   1.36361208
H   -2.28660328  -1.76729307   2.62137597
O    2.80079439  -3.20199282   2.92680581
H    1.92674818  -3.32289070   2.55578186
H    3.14374376  -2.42522883   2.48492881
O    1.62113297  -2.25954271  -2.01165311
H    1.37912332  -1.79608441  -1.20986163
H    1.55404498  -1.59838980  -2.70057101
O    3.42256297  -0.98854109   1.32257585
H    3.55993350  -0.04305387   1.38101475
H    2.52531542  -1.08134485   1.00231635
O    3.31959954   1.73760528   0.96570194
H    3.29396880   1.76548101   0.00925128
H    2.40292889   1.65299351   1.22797588
O    1.66948659  -0.22120092  -3.85500923
H    0.77882459   0.12412246  -3.79414205
H    2.19587990   0.37796754  -3.32572756
S    0.21733549   0.30392319   0.24983305
O    0.66461483   1.13269194   1.40446874
O    0.95019681  -0.99337168   0.25618170
O   -1.24641179   0.04801111   0.35961878
O    0.50094212   1.02836141  -1.02093702
