65
Energy:  -1638.18940186
O   -0.60294502   0.55184559  -3.49764212
H   -1.47879876   0.25464360  -3.25109994
H   -0.19416513   0.80634870  -2.67038217
O   -5.38502892   1.34161777  -1.72494252
H   -4.77446325   1.77688376  -1.12997620
H   -4.85798399   0.67339583  -2.16304632
O    4.20659085  -1.11982967  -1.32680199
H    4.10506094  -1.06987410  -0.37631371
H    3.46965800  -1.65627894  -1.61900743
O   -2.82254111   1.93697398  -0.49710166
H   -2.26609474   1.24143910  -0.14662980
H   -2.20843516   2.60491994  -0.80198513
O   -0.69091403   3.53367790  -1.04919193
H   -0.50897257   3.72750750  -0.12964898
H   -0.16049281   2.76029616  -1.24093621
O   -3.07162552  -0.09473141  -2.41799136
H   -2.89113827  -0.85401136  -1.86378007
H   -2.92318745   0.65946314  -1.84756295
O   -0.31811208   3.66781982   1.66290543
H    0.20146337   2.86573921   1.60868466
H   -1.17800355   3.37668454   1.96631728
O   -0.27781469  -3.75478511  -1.02499139
H    0.00258196  -3.69794951  -0.11154775
H    0.42136169  -3.32525080  -1.51782454
O    0.44812817  -3.08433312   1.54806982
H   -0.45013803  -2.92261117   1.83650644
H    0.68574397  -2.30075590   1.05231047
O   -2.35187909  -2.01364203  -0.56294804
H   -1.66337008  -2.62458726  -0.82549918
H   -1.88077252  -1.24945174  -0.23082811
O   -1.91109394   0.06182648   2.88822280
H   -1.08286397   0.15638000   3.35867640
H   -1.66666164   0.09328597   1.96329308
O    3.12576573   1.30237445  -2.00309946
H    3.50038155   0.45911313  -1.74853084
H    2.21121097   1.25244887  -1.72501875
O   -2.79561790   2.59690427   2.20552401
H   -2.92202514   2.42508430   1.27239436
H   -2.54215629   1.75028643   2.57325664
O    0.64903425   0.34177677   3.79848349
H    1.17554403  -0.45661028   3.75851583
H    0.80694996   0.77561731   2.95998670
O   -2.16631149  -2.57857016   2.13951049
H   -2.39188012  -2.44417226   1.21902809
H   -2.14891338  -1.69759975   2.51343600
O    2.15444036  -1.93323430   3.39517094
H    1.56002156  -2.44450946   2.84608457
H    2.76333181  -1.52841668   2.77742847
O    1.82123979  -2.25438248  -2.03338188
H    1.55962932  -1.75180694  -1.26188357
H    1.77696309  -1.62692875  -2.75488949
O    3.54753716  -0.78676296   1.29397992
H    3.68480061   0.16034330   1.27447814
H    2.67743882  -0.91101126   0.91487163
O    3.49393641   1.90311103   0.75630505
H    3.45243556   1.89666570  -0.19997314
H    2.58134604   1.83349282   1.03659770
O    1.93982975  -0.30854169  -3.96146629
H    1.02691130  -0.02218200  -3.93300788
H    2.41228033   0.34408222  -3.44464492
S    0.37740471   0.39661740   0.15751103
O    0.88125378   1.26557921   1.25802976
O    1.12154176  -0.89424375   0.16363808
O   -1.07538110   0.13337478   0.35805213
O    0.58220438   1.08175937  -1.14967587
