65
Energy:  -1635.69740500
O   -0.64371546   1.74160837  -3.18812520
H   -1.46921255   1.25922453  -3.14238411
H   -0.22308443   1.57803997  -2.34400035
O   -2.00782100   3.58395748  -1.69073116
H   -1.34296451   3.80938159  -1.04005332
H   -1.53518979   3.07736054  -2.35119398
O    4.33084708  -0.55590855  -1.14193071
H    4.13825249  -0.74579251  -0.22373506
H    3.65679274  -1.02773793  -1.63107244
O   -3.23109209   1.47425840  -0.46584215
H   -2.51686711   0.87041880  -0.26214565
H   -2.79624079   2.24845331  -0.82327528
O    0.00999740   3.81652790   0.06812698
H   -0.26520634   3.64546146   0.96881063
H    0.29666911   2.96467764  -0.26111806
O   -3.01976827   0.39356115  -2.96876612
H   -3.26118468   0.75396578  -2.11550270
H   -2.65253875  -0.46781408  -2.77025403
O   -0.87824363   2.99180781   2.51864691
H   -0.38676433   2.19996368   2.30032875
H   -1.79645897   2.72680109   2.46494520
O    0.28759135  -3.79766270  -1.75482668
H    0.32829316  -3.82439617  -0.79886615
H    1.01461892  -3.22981824  -2.01019981
O    0.41839980  -3.39480621   0.95177689
H   -0.51909872  -3.27722131   1.10508102
H    0.71678682  -2.54542458   0.62658788
O   -1.51795255  -1.77604369  -2.15596575
H   -0.99643336  -2.56258633  -1.99596494
H   -1.42647110  -1.26034683  -1.35476682
O   -2.32981611  -0.47179462   2.72849229
H   -2.00498163  -0.34577566   1.83695786
H   -1.54031582  -0.51070305   3.26831381
O    3.12677498   1.91234122  -0.87922965
H    3.56247908   1.08111885  -1.06754632
H    2.19374509   1.72139144  -0.97527779
O   -3.43134976   1.99031848   2.23738183
H   -3.47699406   1.88763228   1.28680096
H   -3.13390423   1.13841467   2.55678425
O    0.15508124  -0.62572386   3.87953159
H    0.76489650  -1.34938926   3.73577633
H    0.30936765  -0.03226818   3.14452281
O   -2.20568207  -2.70304734   1.11650725
H   -1.98224577  -1.98902959   0.51944216
H   -2.41314210  -2.26821540   1.94361871
O    1.92635937  -2.60609626   3.12602026
H    1.39319553  -3.00854695   2.44045363
H    2.53865174  -2.04193621   2.65373503
O    2.14426056  -1.83040715  -2.23121178
H    1.78256157  -1.50994554  -1.40494909
H    1.64286697  -1.37291996  -2.90615015
O    3.38567647  -0.96867274   1.41890782
H    3.39291058  -0.05969876   1.71881752
H    2.57485887  -1.04920394   0.91659180
O    2.97494894   1.67761340   1.86670392
H    3.10084661   1.92551871   0.95077566
H    2.04281495   1.47043631   1.93330516
O    0.32174397  -0.71834250  -3.93060347
H   -0.35087656  -1.15625692  -3.40902468
H    0.15786207   0.21541073  -3.79839349
S    0.17276838   0.19288430   0.24359129
O    0.38292399   0.77753865   1.59788591
O    1.09010727  -0.96602237   0.05511131
O   -1.23916382  -0.26509528   0.11396802
O    0.45720606   1.22511619  -0.79260007
