65
Energy:  -1633.56581802
O   -1.14294949   0.79651597  -3.18461108
H   -1.88746199   0.36240418  -2.76810185
H   -0.51371968   0.92715915  -2.47522117
O   -2.02005925   3.31237716  -2.43449501
H   -1.27593424   3.57504005  -1.89272197
H   -1.74827828   2.48432017  -2.83033407
O    4.18505995  -1.01029219  -1.39111869
H    4.07980452  -0.86786773  -0.45044424
H    3.46610670  -1.59654782  -1.62700513
O   -3.90946628   2.27657541  -0.71886948
H   -3.29129752   2.75874559  -1.26806085
H   -3.81501340   1.36486507  -0.99472226
O    0.17506499   3.70610691  -0.87615187
H   -0.12772537   3.74664160   0.03099023
H    0.38396561   2.78287471  -1.01840052
O   -3.15315103  -0.23540905  -1.59670948
H   -3.29764653  -1.18160875  -1.58902733
H   -2.46848296  -0.09188394  -0.94336270
O   -0.69368182   3.47416941   1.71328285
H   -0.20947595   2.64935297   1.67514666
H   -1.60601613   3.21145562   1.83518203
O    0.13313244  -4.15764680  -0.79903945
H    0.36982999  -3.95786976   0.10666208
H    0.73225808  -3.62878533  -1.32590364
O    0.65464060  -3.11903064   1.68966984
H   -0.24614924  -3.00433672   1.99241532
H    0.82680428  -2.34697969   1.15066257
O   -2.13573877  -2.66537858  -0.43424472
H   -1.38242623  -3.21007721  -0.66240141
H   -1.76106062  -1.80555655  -0.24305318
O   -2.25516810  -0.09386533   2.59942070
H   -1.47212769   0.02139921   3.13774555
H   -1.92923286  -0.09776039   1.69943020
O    2.77660478   1.00898645  -2.61848904
H    3.33390105   0.37238844  -2.17083326
H    1.99820963   1.07719386  -2.06560516
O   -3.23270675   2.44858469   1.96492555
H   -3.48669492   2.37047069   1.04534952
H   -2.95696793   1.56631372   2.21351736
O    0.23785565   0.11634390   3.78739575
H    0.92605522  -0.54828718   3.81703920
H    0.39106062   0.58399228   2.96638109
O   -2.00117909  -2.81351365   2.28562745
H   -2.18452433  -2.85940025   1.34727209
H   -2.14681947  -1.89543490   2.51399585
O    2.26271161  -1.75864070   3.45492564
H    1.71874724  -2.34571148   2.92987087
H    2.81215218  -1.30486724   2.81583522
O    1.84706473  -2.35370003  -1.98364202
H    1.58883215  -1.85101954  -1.21107480
H    1.53525238  -1.83313155  -2.72392127
O    3.54378096  -0.56800094   1.26489915
H    3.53287062   0.38630107   1.33852309
H    2.69109058  -0.78959397   0.89066996
O    3.04499061   2.13084193   1.22522545
H    3.00441627   2.52623204   0.35444865
H    2.14613198   1.85593511   1.40608799
O    1.10059346  -0.64403289  -4.00317387
H    0.25631374  -0.22440625  -3.83783457
H    1.74644075  -0.02901037  -3.65552401
S    0.26340173   0.24307038   0.12896058
O    0.54005815   1.10393797   1.31321908
O    1.14272784  -0.95900805   0.17246950
O   -1.16377514  -0.18458642   0.14834840
O    0.53459604   1.01193801  -1.11819468
