65
Energy:  -1627.11067871
O   -1.24126525   1.24950421  -2.92566393
H   -2.08806825   0.84812962  -3.12074073
H   -0.96313165   0.83747265  -2.10767644
O   -2.23133270   3.27819754  -1.30327538
H   -1.53138306   3.43732726  -0.67004549
H   -1.83381152   2.70929340  -1.96248464
O    4.28866543  -0.99735027  -1.62616737
H    4.20895589  -0.96868499  -0.67272281
H    3.53119145  -1.50623909  -1.91512620
O   -3.14140585   0.98994077  -0.14495501
H   -2.28427162   0.58091036  -0.26431530
H   -3.02078923   1.89139441  -0.44339230
O   -0.22608799   3.45826414   0.54182960
H   -0.43737131   3.16896392   1.42946499
H    0.38835438   2.80104831   0.21508844
O   -3.64896435  -0.04655770  -2.72884715
H   -3.17353148  -0.86534225  -2.58817982
H   -3.65045127   0.38032385  -1.87210811
O   -0.71949902   2.22602479   2.98409896
H   -0.37448357   1.45567489   2.53270421
H   -1.65141401   2.03980720   3.09850746
O   -0.09733113  -4.01059137  -1.63650183
H    0.61965945  -3.46694179  -1.96300066
H   -0.07825561  -3.88825793  -0.68734299
O   -0.02535780  -3.30942708   1.04762389
H   -0.59835808  -2.87898898   1.68215173
H    0.56117870  -2.61616468   0.74497882
O   -2.00723394  -2.08296970  -1.81652516
H   -1.40567293  -2.82696888  -1.84518565
H   -1.49148561  -1.37184864  -1.43633793
O   -1.84845075  -1.56380938   2.56188841
H   -2.40936765  -1.68143315   1.79522764
H   -1.16130835  -0.96617930   2.26709109
O    2.90581847   1.30440898  -2.26278677
H    2.33237804   1.39663920  -1.50193757
H    3.48731416   0.57795394  -2.03838160
O   -3.18057386   0.93950268   2.68098029
H   -3.18084398   1.05526303   1.73080593
H   -2.76710005   0.08728349   2.81879801
O    1.96908213   2.04858993   3.87417051
H    2.03625243   1.09501137   3.82509979
H    1.05386860   2.23576354   3.66540730
O   -3.53961908  -1.75733056   0.43412089
H   -3.02517625  -2.04132873  -0.32147521
H   -3.66934519  -0.81891214   0.29710320
O    2.06909044  -0.62848335   3.36726336
H    1.27966467  -0.46855474   2.85009643
H    2.74654011  -0.81903400   2.71843037
O    1.88284557  -2.19845817  -2.37125056
H    1.68366735  -1.86480504  -1.49647318
H    1.56367197  -1.51935714  -2.96554161
O    3.73575000  -0.81902678   1.10432802
H    3.71403042   0.13317487   1.19957579
H    2.89110899  -1.04030486   0.71209159
O    3.34990788   1.87090054   1.46782296
H    2.62800093   1.79080664   0.84439120
H    2.92412662   2.04850574   2.30651156
O    1.09628065   0.01657891  -3.82444530
H    0.26083370   0.43515395  -3.61694789
H    1.74808887   0.53465996  -3.35224839
S    0.46910376   0.02671149   0.22540413
O    0.05816261   0.07705589   1.65672967
O    1.31782575  -1.17594627  -0.00564845
O   -0.74354359  -0.04801585  -0.63715152
O    1.24397028   1.25375221  -0.11231319
