65
Energy:  -1638.85532195
O   -1.10832700  -0.26520850  -3.10404781
H   -1.62668048  -0.89168949  -2.59901011
H   -0.71607826   0.30792997  -2.44534827
O   -0.77210341   3.52884874  -0.86663166
H   -0.83717099   3.57459178   0.08725807
H   -0.40491947   2.66221323  -1.04084618
O    4.05071934  -0.45359178  -1.39571099
H    3.94841154  -0.40896231  -0.44504114
H    3.46021806  -1.15604729  -1.66791741
O   -3.07925147   1.74190537  -0.49278976
H   -2.50576760   1.01917575  -0.23781919
H   -2.48232493   2.42828389  -0.79077480
O    2.11584516   3.81580173  -0.98601497
H    1.16073460   3.85040418  -0.93311566
H    2.29718251   3.08395466  -1.57571700
O   -4.56690647  -0.38709292  -1.64478469
H   -4.14211260   0.41443552  -1.33927825
H   -3.90337174  -1.06789642  -1.53315981
O   -1.00367369   3.36709730   1.84775809
H   -0.42103854   2.61053701   1.78154142
H   -1.85133475   2.99644105   2.09335231
O   -0.14059942  -3.76503355  -1.29756394
H    0.05612582  -3.75944257  -0.36081436
H    0.59680983  -3.30656703  -1.70038883
O    0.40928328  -3.21738415   1.34395602
H   -0.52724740  -3.16131552   1.53368856
H    0.61306139  -2.39616548   0.89640018
O   -2.34415592  -2.12490126  -1.18791861
H   -1.61135514  -2.72892562  -1.30787457
H   -1.99102630  -1.42533938  -0.63824190
O   -2.33947019  -0.49163944   2.72269652
H   -1.54720422  -0.37653166   3.24738375
H   -2.04998134  -0.36271539   1.81947637
O    2.44369293   1.50115707  -2.47915834
H    3.07925542   0.91072104  -2.07458763
H    1.63070452   1.34415981  -1.99891512
O   -3.38497686   2.04538559   2.23478314
H   -3.42650819   1.97423375   1.28113519
H   -3.08794817   1.18364236   2.52702346
O    0.16254826  -0.04669950   3.75859941
H    0.82219890  -0.73704546   3.69140319
H    0.29354995   0.48748580   2.97519883
O   -2.31394773  -3.01243922   1.56897367
H   -2.50349136  -2.77280453   0.66184618
H   -2.40805125  -2.19489121   2.05784138
O    2.05981323  -1.97283885   3.21626676
H    1.52332810  -2.50420159   2.62799031
H    2.59773806  -1.43765789   2.63278576
O    1.98694690  -2.16237491  -2.02100397
H    1.61857829  -1.70191518  -1.26700579
H    1.75387426  -1.61720340  -2.77246723
O    3.33617178  -0.40177419   1.25643178
H    3.28888372   0.54820896   1.36379894
H    2.50141316  -0.63952315   0.85284125
O    2.81199370   2.32560718   1.28069215
H    2.70636326   2.92212619   0.53958546
H    1.93705261   1.96537570   1.42540984
O    1.42121297  -0.48583538  -4.08223195
H    0.48848218  -0.42209870  -3.87684755
H    1.81241102   0.27992890  -3.66175484
S    0.05679915   0.27474775   0.15287005
O    0.40808371   1.13223097   1.31966981
O    0.95805646  -0.91128849   0.11890969
O   -1.35688438  -0.17911827   0.27778810
O    0.21794082   1.05716678  -1.10488741
