65
Energy:  -1640.02038569
O   -1.11689088   0.61834108  -3.27965505
H   -1.82460169  -0.00523743  -3.11678363
H   -0.72092665   0.76184513  -2.42009076
O   -2.48007343   2.87842710  -2.53818063
H   -1.79881140   3.30965309  -2.02227555
H   -2.03642761   2.13641725  -2.94907187
O    3.89553829  -0.86908431  -1.07100335
H    3.75216791  -0.85878611  -0.12465736
H    3.21535145  -1.45075978  -1.41046079
O   -3.70787813   1.05604097  -0.84886952
H   -2.99871003   0.67539767  -0.33077384
H   -3.29388816   1.76914034  -1.33501089
O   -0.38124764   3.68750827  -0.94670183
H    0.36431455   4.07515923  -0.48833996
H   -0.18746416   2.75043269  -0.97055884
O   -3.26468115  -0.94832743  -2.61507901
H   -3.00947340  -1.64152133  -2.00632367
H   -3.56931459  -0.23572307  -2.05327358
O    1.47786483   4.55547640   0.93672152
H    0.69078335   4.32214591   1.42895262
H    2.04118010   3.78463731   1.00538640
O   -0.15102283  -4.01161543  -0.96838129
H    0.07866642  -3.92313707  -0.04336979
H    0.48024271  -3.45679305  -1.42653823
O    0.32771589  -3.27965428   1.63205902
H   -0.59738144  -3.29288963   1.87752103
H    0.44103510  -2.45016583   1.16801213
O   -2.43917725  -2.55073544  -0.55321155
H   -1.63096320  -3.01594290  -0.76909094
H   -2.14582681  -1.70773722  -0.20747846
O   -2.41785759  -0.71084063   2.96198066
H   -1.63183679  -0.43916249   3.43589431
H   -2.26358927  -0.42955442   2.06014298
O    2.59658339   1.45087778  -1.65802625
H    3.04931736   0.62993645  -1.46484463
H    1.68080430   1.27683496  -1.44056454
O   -0.88595286   3.56460569   1.83291948
H   -0.56608575   2.66548315   1.90705136
H   -1.11646293   3.66191305   0.90899945
O    0.02318954   0.03760572   3.99799403
H    0.64670669  -0.68589480   3.93470737
H    0.11113365   0.50363222   3.16653929
O   -2.35093987  -3.27301498   2.08748599
H   -2.53455783  -3.11466604   1.16150440
H   -2.43605439  -2.41321620   2.49947316
O    1.82701691  -2.00724651   3.56341136
H    1.29909672  -2.56376449   2.99085582
H    2.38890153  -1.51323091   2.96636354
O    1.64089048  -2.14276966  -1.90458436
H    1.28513619  -1.71782487  -1.12414048
H    1.51263017  -1.50355898  -2.60543445
O    3.07785469  -0.62787886   1.51592438
H    3.09418876   0.32832507   1.55641006
H    2.23277458  -0.83682851   1.11791497
O    2.66492116   2.08575581   1.06461148
H    2.69695462   1.96746169   0.11528951
H    1.78305243   1.80724748   1.31153756
O    1.49569722  -0.10691724  -3.74149446
H    0.56962451   0.13344530  -3.71239065
H    1.93267491   0.55628047  -3.20721817
S   -0.16332014   0.23880253   0.32458829
O    0.18251847   1.07996193   1.50481984
O    0.69677943  -0.97782633   0.31263286
O   -1.59502752  -0.16587719   0.40551013
O    0.06244903   1.01895171  -0.92460967
