65
Energy:  -1643.05894955
O   -1.09321654   1.10958132  -3.18783417
H   -1.82530295   0.52530970  -2.99058303
H   -0.54349431   1.07828650  -2.40485400
O   -2.17441120   3.27512413  -1.88458676
H   -1.45592668   3.52031950  -1.30158498
H   -1.79681790   2.61562862  -2.46658403
O    4.00465196  -1.13588757  -1.76692689
H    3.97275012  -1.20486364  -0.81274849
H    3.23565998  -1.61964831  -2.06835473
O   -3.24099017   1.39082224  -0.24644069
H   -2.48587828   0.84454852  -0.02821398
H   -2.87788483   2.10285377  -0.77312605
O   -0.08948010   3.59444069  -0.16796661
H   -0.14977084   3.47133534   0.77936752
H    0.22946807   2.75494235  -0.49924663
O   -3.27639528  -0.34890198  -2.35678073
H   -3.01789432  -1.14308766  -1.88915033
H   -3.44698317   0.29149681  -1.66611365
O   -0.39345829   2.83465834   2.57873170
H    0.08864870   2.12187410   2.15951418
H   -1.31348770   2.58442342   2.49411372
O   -0.36955578  -3.88633332  -1.60549244
H   -0.05198198  -3.94070526  -0.70414765
H    0.27786355  -3.34377820  -2.05573014
O    0.44546809  -3.58917641   0.96183613
H   -0.37902548  -3.44784799   1.42709786
H    0.70996808  -2.71621330   0.67165170
O   -2.37375915  -2.29232940  -0.64343740
H   -1.68383628  -2.82556439  -1.03827752
H   -1.91283335  -1.53996688  -0.27231760
O   -2.00914704  -0.53240732   2.92599990
H   -1.31642480  -0.19024593   3.49106036
H   -1.68455564  -0.39201089   2.03652752
O    2.86010472   1.31487618  -2.15205244
H    3.27590786   0.46354111  -2.01578725
H    1.98644618   1.21867496  -1.77297734
O   -2.98950524   1.96861192   2.41659508
H   -3.19598016   1.87019850   1.48712493
H   -2.78313473   1.08176481   2.71179884
O   -0.12979168   0.75985295   4.47528378
H    0.70476703   0.35767157   4.23446487
H   -0.16129904   1.57016438   3.96672257
O   -2.08447985  -3.12871379   1.96534599
H   -2.33151185  -2.91255749   1.06618889
H   -2.08602217  -2.28818025   2.42331198
O    2.21247136  -0.26266152   3.35855844
H    1.72611384   0.19030517   2.66971202
H    2.82890438  -0.82366726   2.88790491
O    1.55961839  -2.12334799  -2.46841364
H    1.36440432  -1.76706959  -1.60170202
H    1.38515643  -1.39972240  -3.07021168
O    3.59620306  -1.08687504   0.93980268
H    3.68917275  -0.13439680   0.92047147
H    2.69333877  -1.24551647   0.66430164
O    3.44033643   1.62932398   0.59862524
H    2.55876081   1.54552199   0.96198939
H    3.30385474   1.71513646  -0.34490050
O    1.30080998   0.07526331  -4.10354705
H    0.43089595   0.42714778  -3.91471181
H    1.89568465   0.61206506  -3.57990609
S    0.31271368   0.14505006   0.17566790
O    0.87404327   0.85842906   1.35723443
O    1.05388245  -1.13065270  -0.03254191
O   -1.12830138  -0.15072056   0.41251246
O    0.45123037   1.00314443  -1.03453341
