65
Energy:  -1645.42592169
O   -0.97887928  -0.30586942  -3.29829563
H   -0.88560414  -1.23217018  -3.07581306
H   -0.61841834   0.15968503  -2.54360443
O   -0.88671142   3.30883710  -0.96021560
H   -0.93934297   3.39703583  -0.00854194
H   -0.48593196   2.45087974  -1.09991828
O    4.05404844  -0.57930960  -1.22985124
H    3.93559577  -0.50233177  -0.28313311
H    3.47332569  -1.29548497  -1.48692278
O   -3.10482692   1.51254120  -0.51752630
H   -2.53434864   0.80935419  -0.20718069
H   -2.50398480   2.20273004  -0.79834647
O    1.96502673   3.81812953  -0.99264138
H    1.00860160   3.78383499  -0.97512833
H    2.22297199   3.05711009  -1.51278126
O   -3.60279398  -0.40176844  -2.47284410
H   -2.74199662  -0.34779983  -2.88799124
H   -3.60064951   0.30160915  -1.82362364
O   -1.09327910   3.28862460   1.74918015
H   -0.48625697   2.54927637   1.71571110
H   -1.92642716   2.90302587   2.02012257
O   -0.66630024  -2.88757765  -2.57041733
H   -1.24101423  -2.84409120  -1.80618921
H    0.21880211  -2.87003097  -2.20638740
O    0.54139245  -3.14903493   1.85474323
H   -0.41167707  -3.20350965   1.92490613
H    0.69551440  -2.45734787   1.21127817
O   -2.63538495  -2.36014058  -0.69609135
H   -2.15473825  -1.65189580  -0.26760572
H   -3.17595457  -1.92055010  -1.35242705
O   -2.29143650  -0.51398428   2.85875466
H   -1.50154733  -0.32010799   3.36345153
H   -2.01273804  -0.45538290   1.94490298
O    2.49602227   1.43867199  -2.26680908
H    3.11580333   0.83343558  -1.85963323
H    1.65481339   1.23017598  -1.86044856
O   -3.44214706   1.92695455   2.19418693
H   -3.46694456   1.80283327   1.24539252
H   -3.10406211   1.09915024   2.53575748
O    0.17397012   0.16324903   3.84617418
H    0.85805310  -0.50603603   3.86405789
H    0.29064235   0.60322651   3.00412949
O   -2.23403136  -3.15119382   1.99729171
H   -2.46875422  -3.00588534   1.08076432
H   -2.31262933  -2.28864828   2.40480783
O    2.15574803  -1.71716814   3.54636263
H    1.60765117  -2.30707358   3.02883654
H    2.66684628  -1.23340739   2.89752832
O    1.97687523  -2.28287922  -1.90986536
H    1.62185416  -1.83826682  -1.14011754
H    1.84499494  -1.66296792  -2.62718636
O    3.31602748  -0.36628030   1.39187807
H    3.23373975   0.58648311   1.43313894
H    2.49157169  -0.66186715   1.00570076
O    2.74327003   2.35961546   1.27338142
H    2.61935386   2.96866149   0.54541194
H    1.88142865   1.96449639   1.40507120
O    1.65490654  -0.49681877  -3.97172390
H    0.70691901  -0.38282703  -3.90421553
H    2.02080778   0.25440178  -3.50480227
S    0.04172911   0.14474479   0.19639832
O    0.39507556   1.08530524   1.29666753
O    0.96769838  -1.02226692   0.22404952
O   -1.35935379  -0.32851189   0.37831820
O    0.16349629   0.84445271  -1.11344197
