65
Energy:  -1626.59923570
O   -0.80337050   0.47601160  -3.37480469
H   -1.56553349  -0.06390987  -3.16546234
H   -0.37041708   0.61677563  -2.53280192
O   -2.17284759   2.69825591  -2.53913663
H   -1.47316179   3.13309105  -2.05170455
H   -1.73385465   1.98765633  -3.00664630
O    4.21924228  -1.16022641  -1.17937130
H    4.10429814  -1.03006292  -0.23805459
H    3.51104146  -1.75436569  -1.42772984
O   -3.30607198   1.06074235  -0.67495641
H   -2.55990868   0.54036181  -0.37717079
H   -2.92604226   1.70580487  -1.27136533
O   -0.04171260   3.53548583  -1.10384712
H   -0.29613321   3.65829897  -0.18928770
H    0.24565888   2.62374672  -1.15264546
O   -3.13630214  -0.80437614  -2.69657072
H   -2.87920848  -1.57328907  -2.18774107
H   -3.37025976  -0.14894678  -2.03937361
O   -0.78229937   3.46896488   1.51569898
H   -0.30478524   2.64041478   1.55713360
H   -1.70162059   3.22132676   1.61446996
O   -0.01701877  -4.25243390  -0.93345537
H    0.06012141  -4.03329044  -0.00487722
H    0.66494333  -3.73353191  -1.35995304
O    0.15598913  -3.24463491   1.59511158
H   -0.67507103  -2.87487706   1.89318875
H    0.62189638  -2.50473660   1.20560836
O   -2.24673924  -2.67135502  -0.92134803
H   -1.50754242  -3.27169718  -1.01834909
H   -1.86113981  -1.87178928  -0.56324254
O   -1.71684741   0.55594196   3.19822247
H   -1.97809117  -0.33405472   2.96181297
H   -0.97536838   0.74881831   2.62442860
O    2.94889208   1.09249763  -2.06700982
H    3.40974550   0.32027829  -1.73910241
H    2.05766256   1.00122112  -1.72994840
O   -3.27599709   2.33647403   1.77870253
H   -3.37179432   1.90024618   0.93208573
H   -2.82801666   1.69485484   2.32994676
O   -0.01319031   0.29067053   5.38113996
H   -0.71748900   0.40865303   4.74374265
H    0.78841304   0.30348116   4.85816788
O   -2.28773765  -1.94242682   2.01165852
H   -1.93028010  -1.34619114   1.35366234
H   -2.82036192  -2.56060912   1.51126480
O    1.99159137   0.43785489   3.47098770
H    1.36544485   0.71854130   2.80361410
H    2.65493082  -0.05331548   2.98625654
O    1.90764816  -2.47636076  -1.81248610
H    1.62187275  -1.97400224  -1.04946566
H    1.75283686  -1.89312445  -2.55552090
O    3.54868232  -0.58779530   1.40161122
H    3.56133694   0.35095247   1.21499843
H    2.69174603  -0.88227491   1.09310870
O    3.12190952   1.98449538   0.61467446
H    3.06844709   1.89575261  -0.33690230
H    2.21089310   1.97414901   0.90822836
O    1.67672906  -0.62665603  -3.83347769
H    0.78196262  -0.28736671  -3.81094731
H    2.19819049   0.04199097  -3.38938197
S    0.18711074   0.09936486   0.19553166
O    0.34087470   0.99430507   1.37686085
O    1.12712693  -1.05022673   0.31763293
O   -1.21262224  -0.40782929   0.13551756
O    0.49306356   0.86121040  -1.04788471
