65
Energy:  -1645.48294453
O   -1.19688773  -0.02272904  -3.68296200
H   -2.05644598  -0.23954134  -3.32187491
H   -0.71118056   0.34269352  -2.94351170
O   -1.16192520   3.23798177  -1.58331795
H   -0.82167298   3.59043212  -0.76098041
H   -0.63236009   2.45766760  -1.74733754
O    3.98953416  -1.11691975  -1.72866969
H    3.94342405  -0.96910425  -0.78407651
H    3.27741337  -1.73010212  -1.91066748
O   -3.12808973   1.62170331  -0.58219261
H   -2.49540950   0.97589033  -0.26775158
H   -2.59490120   2.29060735  -1.01173798
O   -0.12466403   3.88644799   0.89973329
H   -0.51858365   3.90887928   1.77183192
H    0.25970305   3.01239804   0.83242445
O   -3.54924463  -0.53709720  -2.32142595
H   -3.23535283  -1.23494869  -1.74635457
H   -3.50433806   0.25436404  -1.78495195
O   -1.16277940   3.39446097   3.40498704
H   -0.56739718   2.65226809   3.50939772
H   -1.94159504   3.02115213   2.99229036
O   -0.22970902  -3.97919968  -0.82820619
H    0.11491331  -3.80154501   0.04695443
H    0.39799339  -3.56675214  -1.42159355
O    0.62661199  -2.95965662   1.60910639
H   -0.29237575  -2.89029841   1.86772352
H    0.75950735  -2.23448565   0.99861664
O   -2.41275066  -2.32413726  -0.49530072
H   -1.69877342  -2.91174910  -0.74264799
H   -1.97808595  -1.50509613  -0.25766641
O   -1.90486015  -0.12414777   2.75365808
H   -1.10782423   0.22283381   3.15436916
H   -1.72668616  -0.10949393   1.81330116
O    2.65789711   1.08595625  -2.67328717
H    3.11560533   0.31639661  -2.33488950
H    1.77586526   1.02082954  -2.30721317
O   -3.27969966   2.15627090   2.16150059
H   -3.29824845   2.10717390   1.20574054
H   -2.91317975   1.31632606   2.43788379
O    0.49265745   1.03566849   3.39310061
H    1.06090271   0.28075553   3.54618746
H    0.60586399   1.23679564   2.46414205
O   -2.02900989  -2.79247340   2.18547572
H   -2.30426572  -2.71833795   1.27170878
H   -2.05393015  -1.89493630   2.51719545
O    2.10142251  -1.23210721   3.23380891
H    1.58692215  -1.91587645   2.80487902
H    2.69923031  -0.91988007   2.55456528
O    1.66589669  -2.48379182  -2.16585091
H    1.42478352  -1.91505169  -1.43466629
H    1.48256719  -1.96147333  -2.94675137
O    3.49312730  -0.52468538   0.90489253
H    3.57431165   0.41018945   0.71608042
H    2.62069977  -0.75862807   0.58807576
O    3.24199449   2.03009625  -0.04773694
H    3.12317775   1.91049422  -0.98997352
H    2.36076503   1.95015399   0.31733254
O    1.36120203  -0.79572288  -4.30159490
H    0.43767666  -0.56361080  -4.20434918
H    1.83551956  -0.06207138  -3.91042971
S    0.19062868   0.29582335  -0.17847489
O    0.71289349   1.33538878   0.75246184
O    1.04174308  -0.92387928  -0.08886595
O   -1.21016591  -0.04743116   0.19575881
O    0.21804406   0.81921507  -1.57325427
