65
Energy:  -1640.13944406
O   -1.19109226  -0.51603659  -3.28327010
H   -1.17190745  -1.42490984  -2.98358157
H   -0.82651250  -0.01502166  -2.55368290
O   -0.99192268   3.21286192  -1.11210590
H   -1.01907501   3.35168181  -0.16541501
H   -0.60506622   2.34352802  -1.21618514
O    3.93594455  -0.56929771  -1.43338511
H    3.85453340  -0.44963413  -0.48719026
H    3.36029370  -1.30773469  -1.63230411
O   -3.18017834   1.46055648  -0.57193835
H   -2.65825674   0.70860511  -0.29194045
H   -2.53537611   2.10466495  -0.86448956
O    1.79218800   3.76143670  -1.27439414
H    0.83648891   3.73091184  -1.23035617
H    2.03393800   2.98643711  -1.78150795
O   -3.78145932   0.44599874  -3.08019008
H   -2.91430662   0.08362919  -3.26175646
H   -3.70766696   0.81565902  -2.20033906
O   -1.13640103   3.35835927   1.59258125
H   -0.56919021   2.58743503   1.57918163
H   -1.99291850   3.02157551   1.85561426
O   -0.76448676  -3.06871592  -2.37974846
H    0.17501609  -2.97332988  -2.22332680
H   -1.14698778  -3.14326965  -1.50546787
O    0.65310723  -3.13070490   1.88913905
H   -0.13884723  -2.93087988   2.38824821
H    0.76505193  -2.37997768   1.30595052
O   -1.63116588  -3.12506169   0.21496232
H   -0.76412780  -3.32563855   0.56744742
H   -1.67959941  -2.16915553   0.22634046
O   -2.29628810  -0.19606875   2.94024413
H   -1.46535702   0.01550845   3.36570914
H   -2.07527954  -0.28560073   2.01322143
O    2.25584438   1.34011238  -2.47780391
H    2.91370560   0.77115846  -2.07812665
H    1.44247147   1.12359666  -2.02197796
O   -3.53033322   2.11449307   2.07548373
H   -3.55067193   1.90524349   1.14165676
H   -3.17014152   1.33015889   2.48938430
O    0.26982228   0.28337923   3.78427770
H    0.98190816  -0.35604948   3.80149625
H    0.33227374   0.68889094   2.91947026
O   -1.89534936  -2.88419770   2.93674379
H   -2.07630964  -3.05236227   2.01197036
H   -2.10113643  -1.95712577   3.05683200
O    2.31154893  -1.55860899   3.44622210
H    1.81277646  -2.22442919   2.97278643
H    2.77346169  -1.07344923   2.76249082
O    1.86157289  -2.32857019  -1.94367894
H    1.51855297  -1.86538476  -1.17946141
H    1.68922639  -1.73982255  -2.67846105
O    3.29397792  -0.25125098   1.20014629
H    3.18102788   0.69918978   1.21182923
H    2.46111390  -0.58785898   0.86959461
O    2.59327471   2.41767951   1.03446169
H    2.43901550   2.98663747   0.28032459
H    1.74131474   2.01950471   1.21293548
O    1.40138038  -0.68332483  -4.06968195
H    0.45421069  -0.60659911  -3.95472725
H    1.75736619   0.10600684  -3.66168506
S   -0.06962242   0.08117780   0.16491114
O    0.26607187   1.08880452   1.20994594
O    0.90339230  -1.04534458   0.23040679
O   -1.44658519  -0.43760485   0.39929995
O   -0.00136867   0.71885611  -1.18000812
