65
Energy:  -1642.67906585
O   -1.10770233   0.27220805  -3.34535720
H   -1.86650951  -0.17840440  -2.97469301
H   -0.51821297   0.40061071  -2.60222404
O   -1.93092849   2.77993529  -2.59865179
H   -1.12696948   3.12407291  -2.20948465
H   -1.66604927   1.95597528  -3.00750476
O    3.07516044   0.19174599  -1.81671594
H    3.35507156  -0.11196585  -0.95321103
H    2.13690402   0.35532472  -1.72106687
O   -3.23210328   1.42793354  -0.60328411
H   -2.51953451   0.88733335  -0.26236031
H   -2.81690476   1.98480742  -1.26186860
O    0.45961350   3.37825396  -1.37227889
H    0.13905352   3.60303846  -0.49881161
H    0.48163891   2.42134651  -1.38093098
O   -3.35474467  -0.81004250  -2.19368669
H   -3.08488780  -1.49003795  -1.57642232
H   -3.47919234  -0.03037098  -1.65252410
O   -0.52175501   3.58293985   1.19843989
H   -0.02617097   2.77066212   1.30252248
H   -1.41169519   3.35749559   1.46938863
O   -0.17490706  -4.08241969  -0.58051714
H    0.47579606  -3.66475933  -1.14476631
H    0.13053219  -3.90610990   0.30934441
O    0.54414656  -3.16891322   1.92391607
H   -0.34192857  -3.03355347   2.25974408
H    0.70253224  -2.41609104   1.35435081
O   -2.36648973  -2.44676623  -0.18741952
H   -1.63808179  -3.01989838  -0.42652882
H   -1.95609720  -1.60254752  -0.00005730
O   -2.01857979   0.08179325   2.90389079
H   -1.16950326   0.18186898   3.33433910
H   -1.81020993   0.03093315   1.97103116
O    3.21478843   2.92755501  -1.32980632
H    3.22477266   2.01821575  -1.62852740
H    2.29442476   3.18602047  -1.37836717
O   -2.98562774   2.53342661   1.91202242
H   -3.19004198   2.21425043   1.03306097
H   -2.69150004   1.75628193   2.38717174
O    0.59807686   0.31419006   3.73950601
H    1.25078045  -0.38562082   3.71772028
H    0.67766825   0.74320033   2.88753931
O   -2.07674683  -2.65734077   2.54548341
H   -2.11376395  -1.73347728   2.79314818
H   -2.31461868  -2.66698022   1.61836103
O    2.46511755  -1.70935110   3.29867217
H    1.83378620  -2.31008234   2.90272450
H    2.95995238  -1.35884852   2.55805197
O    1.72536069  -2.38115913  -1.88294810
H    1.42663763  -1.98148573  -1.06608975
H    2.37822648  -1.77008789  -2.22440095
O    3.54182163  -0.64655909   0.87313240
H    3.51140634   0.28295920   1.09963300
H    2.62874258  -0.88427019   0.71185027
O    3.22552921   2.02205807   1.26069730
H    3.30473371   2.44839302   0.40735270
H    2.29289133   1.82339617   1.34407526
O    0.30733170  -1.92421215  -4.24014671
H    0.74037555  -2.15618026  -3.41862637
H   -0.20044561  -1.14028081  -4.03075305
S    0.21287110   0.17629684   0.16315345
O    0.66972059   1.16734115   1.17765811
O    0.96432160  -1.09809198   0.34022771
O   -1.24472767  -0.07810893   0.33860588
O    0.46216987   0.71404712  -1.20387793
