65
Energy:  -1632.57525789
O   -1.35642610  -0.47425434  -3.11751705
H   -1.22550187  -0.22209004  -2.20345804
H   -0.53602860  -0.23939532  -3.55113098
O   -2.80683494   1.89262924   0.43918782
H   -2.11586504   1.26194983   0.23661458
H   -2.71269545   2.57385887  -0.22661681
O    3.93540394  -1.23207442  -0.91015056
H    3.87346606  -1.81268862  -0.15167663
H    3.02647314  -1.06631636  -1.16035232
O    0.93090316   2.89350189  -2.64159285
H    1.21261261   2.55669258  -1.79104531
H   -0.01991369   2.97315676  -2.56521049
O   -1.75225542   2.60381313  -2.03034255
H   -1.34317889   1.89662638  -1.53156891
H   -2.43420073   2.17155314  -2.54447653
O   -3.64030674   1.00849890  -3.21327829
H   -4.04495300   0.67440433  -2.41273219
H   -2.88389618   0.43939636  -3.35539519
O   -1.61804227   2.44578376   2.81848586
H   -0.77831991   2.79582242   2.52087680
H   -2.11840676   2.30629839   2.01448894
O   -1.64437055  -3.07274409  -2.25588469
H   -1.55243851  -2.23292040  -2.70585860
H   -0.77142951  -3.25564274  -1.90838812
O    0.80133417  -2.98347098   1.59773958
H   -0.05818400  -3.09261085   2.00461652
H    0.86356694  -2.04571338   1.41616421
O   -2.46319236  -1.70153803  -0.05434074
H   -2.24517029  -2.29946218  -0.76931272
H   -1.86610243  -0.96226867  -0.16921582
O   -0.60950824  -0.03873976   3.32865202
H   -1.06265815   0.79364277   3.19438986
H   -0.10037312  -0.16664464   2.52824361
O    0.81382599  -3.28252563  -1.14486179
H    0.78650166  -3.34216579  -0.18991243
H    1.06798721  -2.37676256  -1.32157391
O   -4.46000306   0.07908413  -0.75853168
H   -4.04234008   0.78943894  -0.27151472
H   -3.92552471  -0.69110167  -0.56519629
O    1.64433451   1.45105700   3.98312169
H    0.85518191   0.91372072   3.91427591
H    2.30431781   0.97370738   3.48033820
O   -1.75786874  -2.47659459   2.53129498
H   -2.06276771  -2.24195925   1.65481639
H   -1.43998906  -1.65381187   2.90306501
O    3.18454417   0.00294549   2.27427313
H    2.31173504  -0.16486001   1.91891784
H    3.61468526   0.54137142   1.60996295
O    3.60373895  -2.58577702   1.50580322
H    3.56788141  -1.70172335   1.87103629
H    2.70168788  -2.90228133   1.55439057
O    4.02153946   1.34039950   0.06460855
H    4.11170487   0.49402479  -0.37328630
H    3.11407418   1.59864158  -0.09679045
O    0.86286702   3.15564492   1.95236705
H    1.06652290   2.68990565   1.14129180
H    1.25500146   2.61975395   2.64177498
O    1.14920906   0.38255250  -3.79031382
H    1.34517636  -0.08483134  -2.97829103
H    1.14096072   1.30628124  -3.53953695
S    0.65775386   0.24815701  -0.25210171
O    1.29992230   1.59264618  -0.26038299
O   -0.78999104   0.38722986  -0.57581984
O    1.31284251  -0.62141841  -1.26935167
O    0.80824169  -0.36582961   1.09714767
