65
Energy:  -1633.38661550
O   -1.01384269  -0.32514547  -3.59965221
H   -1.03236314  -1.26646374  -3.42700009
H   -0.63666434   0.05682736  -2.80714662
O   -0.72964889   3.12153880  -0.93732805
H   -0.68785413   3.14419655   0.01869061
H   -0.45433599   2.23444408  -1.16862357
O    3.59139152  -0.33961961  -0.22911395
H    3.49278989   0.15106425   0.58681431
H    2.79996015  -0.87518675  -0.28421442
O   -3.32218790   2.20006659  -0.69336773
H   -3.32302671   1.34743330  -1.12839373
H   -2.45881892   2.56633950  -0.88486185
O    1.98007450   3.65791758  -1.03643938
H    1.02566945   3.59355110  -1.07107759
H    2.29011841   2.85664667  -1.45842226
O   -3.16732907  -0.30048185  -1.82543288
H   -2.59790212  -0.23299805  -2.59187319
H   -2.57525357  -0.51577285  -1.10478857
O   -0.52198373   2.91256883   1.76489291
H   -0.14522184   2.05505045   1.56754915
H   -1.42505674   2.72480685   2.02069837
O   -1.00577304  -2.98853307  -3.01751387
H   -0.06457562  -3.01736468  -2.84561852
H   -1.41044969  -3.14862183  -2.16496460
O    1.10417845  -2.99411452   1.90686292
H    0.17173653  -3.18268153   2.01281756
H    1.15922347  -2.51155098   1.08203911
O   -2.36531357  -3.22071510  -0.62514097
H   -1.92543613  -2.41018139  -0.36867500
H   -3.20452631  -2.93456856  -0.98579867
O   -2.46974373  -0.77976720   2.43112325
H   -1.71987149  -0.56744857   2.98686083
H   -2.11191503  -0.80246169   1.54361244
O    2.50944534   1.21081769  -2.19731926
H    3.03229443   0.69957149  -1.57967212
H    1.60269123   1.04235721  -1.94109687
O   -3.09460442   1.93336809   2.03844154
H   -3.26140431   1.99095024   1.09764723
H   -2.94784907   1.00130595   2.19954672
O   -0.15454303  -0.09236077   3.66484136
H    0.63187475  -0.58061976   3.90852573
H    0.01583418   0.20677601   2.77168928
O   -1.67018961  -3.43209959   2.09989316
H   -1.90094514  -3.53186130   1.17629620
H   -1.98464900  -2.55854853   2.33282165
O    2.30445119  -1.30905895   3.73448330
H    1.96045214  -1.93340846   3.09566862
H    2.58758040  -0.56024064   3.20975401
O    1.64083167  -2.72965370  -2.55037907
H    1.50008767  -2.31749274  -1.69800221
H    1.78093549  -1.99746064  -3.15079233
O    2.79623464   0.96304738   2.07578980
H    2.82444353   1.91983140   2.07646399
H    1.92640868   0.74883859   1.73852249
O    2.21388910   3.66163730   1.71439745
H    2.24230570   3.69880910   0.75834169
H    1.29242096   3.50557786   1.92121567
O    1.69962304  -0.51480763  -4.19519326
H    0.75370397  -0.38771660  -4.12227675
H    2.07427671   0.10994484  -3.57426586
S    0.04532439  -0.29391741  -0.12586526
O    0.36598133   0.50610359   1.08955463
O    1.05816249  -1.37421016  -0.29086998
O   -1.30785118  -0.90003592   0.02122739
O    0.06500491   0.59247284  -1.32337310
