65
Energy:  -1642.89533237
O   -1.21782159   0.13733420  -3.46266670
H   -2.03338462  -0.25446428  -3.15028434
H   -0.80112095   0.48493661  -2.67414594
O   -1.28514012   3.29209949  -1.01107192
H   -1.27448535   3.36912286  -0.05703538
H   -0.76738048   2.50815604  -1.19434624
O    3.98106122  -0.67586226  -1.54539939
H    3.91034585  -0.54343826  -0.60004492
H    3.33159563  -1.35084924  -1.74242442
O   -3.28626660   1.33009030  -0.52116589
H   -2.63048708   0.71438877  -0.19390958
H   -2.77712398   2.07223095  -0.84709978
O    1.14911043   4.73883964  -0.77851860
H    1.67734796   4.07050160  -0.34203124
H    0.30680843   4.31288739  -0.93765337
O   -3.50620783  -0.84199393  -2.27234321
H   -3.17090321  -1.52527765  -1.69188992
H   -3.55775309  -0.06190822  -1.72003784
O   -1.25756004   3.29282680   1.70324144
H   -0.60102008   2.59847918   1.64784719
H   -2.05670537   2.84578645   1.98208460
O   -0.00665968  -3.99230113  -0.90395206
H    0.31119668  -3.85567802  -0.01146491
H    0.59313963  -3.48661999  -1.45236725
O    0.78499273  -3.10077904   1.58650795
H   -0.11648134  -3.09530454   1.90829419
H    0.85265266  -2.31180732   1.04875559
O   -2.33463040  -2.59384565  -0.43106856
H   -1.57032182  -3.09545641  -0.71470720
H   -1.97715660  -1.75367494  -0.14374036
O   -2.09343260  -0.42158330   2.92743821
H   -1.28055366  -0.17166846   3.36675841
H   -1.88551167  -0.37649531   1.99418165
O    2.43765829   1.44263524  -2.30789869
H    2.97161353   0.69652902  -2.03504496
H    1.56234296   1.24619206  -1.97403496
O   -3.52617804   1.83255868   2.19804055
H   -3.58726476   1.66447694   1.25769551
H   -3.10258224   1.05165500   2.55439414
O    0.42815468   0.31058175   3.72252094
H    1.11392651  -0.35581487   3.67934237
H    0.47554642   0.75878033   2.87806614
O   -1.86588366  -3.07482287   2.24959413
H   -2.15981903  -3.00552548   1.34128156
H   -1.99986474  -2.19933850   2.61264791
O    2.39009872  -1.56761507   3.25180985
H    1.87417742  -2.19641877   2.74716843
H    2.84942883  -1.04904290   2.59125660
O    1.79373736  -2.23753708  -2.05397202
H    1.57806766  -1.67988183  -2.80146052
H    1.48484221  -1.74750317  -1.29194683
O    3.37403736  -0.12059770   1.06176890
H    3.29351633   0.83111310   0.99856480
H    2.53134531  -0.45374783   0.75336503
O    2.61014779   2.53400097   0.26871091
H    2.57733713   2.26012685  -0.64788511
H    1.80690829   2.18279659   0.65302021
O    1.37617613  -0.44291898  -4.08040784
H    0.43733390  -0.27847301  -3.99229072
H    1.79214734   0.31016591  -3.66080928
S    0.02317464   0.25170843   0.10796192
O    0.40470736   1.22764660   1.16724351
O    0.98831611  -0.88345754   0.10757054
O   -1.34884063  -0.26298377   0.37771375
O    0.04851572   0.92562845  -1.22068011
