65
Energy:  -1640.93533712
O   -1.41790548   0.97289514  -3.22772807
H   -2.09946852   0.36632355  -2.93828969
H   -0.78397497   0.98150090  -2.51058799
O   -2.46517802   3.22242259  -2.10266994
H   -1.68318044   3.54827307  -1.65709941
H   -2.14693917   2.50755272  -2.65395657
O    4.52301981  -2.07602124  -1.26772905
H    4.33266116  -1.61434831  -0.45111804
H    3.66996230  -2.17941574  -1.68943312
O   -3.38290897   1.37317258  -0.32345330
H   -2.58583819   0.87498964  -0.14255614
H   -3.09601643   2.08606101  -0.89416742
O   -0.11667563   3.72254279  -0.82501473
H   -0.31402347   3.71939189   0.11161526
H    0.11312137   2.81509126  -1.02490701
O   -3.49935978  -0.54050130  -2.28407882
H   -3.64575099   0.12037363  -1.60728802
H   -3.12795336  -1.28710788  -1.81411313
O   -0.66317412   3.37240485   1.81991096
H   -0.10940249   2.59729617   1.72623414
H   -1.52646686   3.02491583   2.04398435
O   -0.05574426  -3.91240503  -1.24836660
H    0.60288661  -3.40465552  -1.72231560
H    0.21871041  -3.86596859  -0.33253357
O    0.61392102  -3.24999572   1.33483359
H   -0.28430518  -3.16881330   1.65550628
H    0.77805634  -2.42924174   0.87044760
O   -2.23640602  -2.35751931  -0.66137746
H   -1.50038622  -2.88900977  -0.96473304
H   -1.83610325  -1.54010221  -0.36503505
O   -1.93558338  -0.34522535   2.75630695
H   -1.09825804  -0.23950168   3.20790480
H   -1.72486792  -0.22933855   1.82980757
O    2.56495424   2.93957414  -1.31249545
H    2.04208982   2.14479138  -1.41816009
H    1.92732688   3.61889727  -1.09298856
O   -3.07974972   2.12888452   2.30282085
H   -3.31576202   1.94772781   1.39303390
H   -2.72755263   1.30070033   2.62885766
O    0.60770431  -0.00241399   3.67865107
H    1.22151645  -0.73153179   3.59002981
H    0.71121620   0.49815374   2.86936183
O   -2.01659772  -2.97584461   2.00204114
H   -2.23941141  -2.84333865   1.08061395
H   -2.05301012  -2.09983896   2.38612457
O    2.34232012  -2.07122801   3.13104595
H    1.75688653  -2.60523640   2.59407816
H    2.89393148  -1.61025534   2.49901671
O    1.89484641  -2.20968060  -2.19850409
H    1.64768103  -1.79585830  -1.37152633
H    1.71257036  -1.54541978  -2.86315803
O    3.57386448  -0.77593945   1.01440190
H    3.65216895   0.17298280   1.11262018
H    2.70266744  -0.90740643   0.64028426
O    3.27925863   1.95867319   1.16836677
H    3.24245500   2.36306192   0.30156397
H    2.37191476   1.72320865   1.36205569
O    1.19669993   0.00645968  -3.65275705
H    0.31560742   0.14788969  -3.99903063
H    1.18062718   0.40853198  -2.78424604
S    0.27663726   0.29013598   0.05256447
O    0.69929329   1.11848297   1.21673934
O    1.08203223  -0.96290314   0.01606892
O   -1.16768323  -0.05145202   0.18430655
O    0.49290675   1.05641609  -1.20685695
