65
Energy:  -1645.52888852
O   -1.12317903   0.72637897  -3.27503048
H   -1.89979138   0.26358557  -2.96050325
H   -0.53948631   0.75838731  -2.51706601
O   -1.84176502   3.16540612  -2.22927234
H   -1.02311265   3.43430602  -1.81245945
H   -1.60804187   2.38964423  -2.73897699
O    4.47348014   0.79988381  -0.61255883
H    3.98672398   1.55657627  -0.28588345
H    4.20440639   0.07798056  -0.04450349
O   -3.07020500   1.64218060  -0.32220524
H   -2.37147876   1.03739318  -0.07271442
H   -2.65507060   2.24862985  -0.93548706
O    0.53119619   3.55793406  -0.91733289
H    0.21272463   3.61559715  -0.01650956
H    0.58042750   2.61862000  -1.09480747
O   -3.42028557  -0.33210616  -2.19148257
H   -3.20527653  -1.09230821  -1.65102369
H   -3.47164895   0.39588303  -1.57210758
O   -0.28019795   3.30528041   1.68677305
H    0.19199615   2.47273488   1.67526150
H   -1.17153473   3.07207274   1.94632030
O   -0.75549575  -4.10727642  -0.95845733
H   -0.36401465  -4.03363064  -0.08808345
H   -0.12895133  -3.67737243  -1.54057115
O    0.28618465  -3.36718729   1.46683959
H   -0.56977461  -3.13596638   1.82753681
H    0.53255399  -2.61309806   0.93122459
O   -2.58633453  -2.17942618  -0.33887419
H   -1.96277157  -2.83611837  -0.64896525
H   -2.04318823  -1.43200583  -0.08870072
O   -1.85960540  -0.08833440   2.98202999
H   -1.00528827  -0.05801255   3.41267448
H   -1.65766153  -0.06842626   2.04658667
O    2.68795041   0.80529806  -2.71934970
H    3.40463730   0.73684344  -2.08855202
H    1.89938733   0.86967999  -2.18059644
O   -2.80619072   2.42055861   2.30307201
H   -3.02405964   2.22226999   1.39233242
H   -2.54241045   1.57911746   2.67540064
O    0.76405333  -0.03571721   3.76643505
H    1.20845722  -0.87967501   3.68598473
H    0.88446684   0.38120667   2.91326045
O   -2.22600763  -2.72417680   2.32007792
H   -2.51390188  -2.59986804   1.41570184
H   -2.16000050  -1.83763489   2.67492765
O    2.12008232  -2.37452814   3.23361176
H    1.47465337  -2.84001913   2.70166115
H    2.68812920  -1.94092305   2.59679058
O    1.13362347  -2.66228454  -2.27443758
H    1.16930741  -2.12552175  -1.48270264
H    1.09016653  -2.02969078  -2.99149300
O    3.35765837  -0.89914970   1.27498568
H    3.04330156  -0.09044755   1.67922877
H    2.63169280  -1.18934267   0.72272317
O    2.83426406   2.70868175   0.46343271
H    2.29085532   3.21677276  -0.13888142
H    2.23067836   2.07971623   0.85880409
O    1.01837723  -0.74284643  -4.24808991
H    0.20986961  -0.27532352  -4.03840062
H    1.70792133  -0.23181327  -3.82429056
S    0.32798514   0.12405801   0.12831777
O    0.96027257   0.89449046   1.23590362
O    0.98097916  -1.21048904   0.01569904
O   -1.12334915  -0.05564151   0.41368927
O    0.49403794   0.86787213  -1.15202088
