65
Energy:  -1631.42564684
O   -1.28552067  -0.53727288  -2.94250399
H   -1.61588983  -1.24830319  -2.39339200
H   -0.85149467   0.05692308  -2.33030758
O   -0.90025880   3.42522087  -0.80518779
H   -0.96181402   3.48835403   0.14794232
H   -0.53857633   2.55353007  -0.96510271
O    3.97895400  -0.38204408  -1.46535552
H    3.77598767  -0.43586180  -0.53147106
H    3.57680603  -1.16389751  -1.84379187
O   -3.19368121   1.78256961  -0.46275893
H   -2.69913043   1.00019665  -0.21874267
H   -2.52430663   2.43577231  -0.66646399
O    1.93179045   3.72888830  -1.03161148
H    0.97838381   3.77360626  -0.95916882
H    2.09347147   2.99063213  -1.61903716
O   -3.67577300   0.87743226  -3.03987913
H   -2.85950011   0.38784116  -3.14102743
H   -3.63234086   1.23589932  -2.15339909
O   -1.22878592   3.34440401   1.91063458
H   -0.64277907   2.59015416   1.84790513
H   -2.07662939   2.97030879   2.15031369
O    0.64028674  -3.26362119  -1.02552603
H    0.69479064  -3.84587285  -0.26773703
H    0.75444520  -2.38546851  -0.66214253
O    0.50082637  -3.18906122   1.84829409
H   -0.44662204  -3.26633564   1.96055284
H    0.61655129  -2.39641627   1.32431549
O   -2.01408681  -2.49160173  -0.96589154
H   -1.11624412  -2.81898779  -1.02000920
H   -1.94164470  -1.67216372  -0.47649872
O   -2.52081120  -0.60226018   2.81363744
H   -1.72906448  -0.43716104   3.32560545
H   -2.25289596  -0.46215353   1.90543955
O    2.19582919   1.40703890  -2.50982323
H    2.87636856   0.85550971  -2.12393002
H    1.41381414   1.22262540  -1.98955793
O   -3.58452247   1.95142102   2.27116556
H   -3.58485504   1.90060954   1.31531519
H   -3.27619766   1.09153024   2.55709476
O   -0.02680870  -0.00217689   3.84063875
H    0.73233068  -0.58521029   3.84400090
H    0.07524199   0.52011124   3.04500528
O   -2.24179477  -3.19181594   1.79236866
H   -2.31386528  -3.01367498   0.85465682
H   -2.41744008  -2.34909422   2.21093846
O    2.14544834  -1.67649563   3.46523002
H    1.60333004  -2.31180716   2.99755614
H    2.60772406  -1.20117871   2.77486286
O    2.65201861  -2.44625275  -2.73108357
H    1.98436400  -2.83086374  -2.16315438
H    2.16731880  -1.84925717  -3.30107850
O    3.19976535  -0.40202684   1.18344109
H    3.13611451   0.54925116   1.26859152
H    2.34238620  -0.67138043   0.85392404
O    2.60262694   2.29297747   1.26467387
H    2.49227374   2.85946553   0.50103437
H    1.72684070   1.94612691   1.43474741
O    1.22184067  -0.58556805  -4.13241214
H    0.31496129  -0.63234178  -3.82973433
H    1.58647047   0.17580265  -3.68120088
S   -0.15408676   0.20568539   0.25568055
O    0.17546643   1.12408615   1.38175103
O    0.74005220  -0.98506273   0.30797238
O   -1.57319126  -0.23333906   0.37186996
O    0.04132557   0.91705719  -1.03887119
