65
Energy:  -1630.20835925
O   -0.54255068   0.38045257  -3.88664184
H   -1.36319825  -0.07785587  -3.70574742
H   -0.16135290   0.53989745  -3.02321991
O   -1.88658395   2.58402085  -2.81053170
H   -1.18680724   2.99219466  -2.30069002
H   -1.44373192   1.91655877  -3.33456253
O    3.24120223   1.03225219  -1.68585531
H    3.49860573   0.41357015  -1.00232929
H    2.29538374   0.91369893  -1.77305833
O   -3.19760236   0.90024573  -1.05521747
H   -2.48950291   0.30857329  -0.80075581
H   -2.77676788   1.55003087  -1.61816459
O    0.22785498   3.39308040  -1.23388829
H   -0.16103257   3.43640239  -0.36032002
H    0.38295620   2.46014148  -1.38153795
O   -2.91940947  -0.81726244  -3.25711399
H   -2.51608680  -1.59609955  -2.87374025
H   -3.17504578  -0.28415097  -2.50433641
O   -0.66616937   3.10067969   1.31101557
H   -0.23685011   2.25301292   1.19535288
H   -1.59462619   2.88839801   1.40659945
O   -1.10217689  -4.52861298   0.05302328
H   -0.31425897  -4.19781629   0.48428971
H   -1.16105622  -4.02463784  -0.75862575
O    0.98255925  -3.32625420   1.40679193
H    0.46321336  -2.92935328   2.10606395
H    1.09110298  -2.62711797   0.76207598
O   -2.53522727  -2.47451430   1.14277232
H   -2.15822194  -3.28242790   0.79438399
H   -2.13481258  -1.77859988   0.62161683
O   -1.03617904   0.58522799   3.21983906
H   -0.56893893   1.26579911   3.70434033
H   -0.55904143   0.50831601   2.39360901
O    2.82616319   3.29253665  -0.24942623
H    3.10610509   2.55510821  -0.79170261
H    1.94479346   3.49849068  -0.56087796
O   -3.09090324   1.91083192   1.59090242
H   -3.20557387   1.50109149   0.73346713
H   -2.59272472   1.27010773   2.09836919
O    0.68226895   2.77187397   3.69570546
H    1.46386040   2.39209666   3.29431308
H    0.15678322   3.07697580   2.95610458
O   -0.79784763  -2.17816183   3.19294134
H   -1.48912277  -2.32207191   2.54667481
H   -0.81038907  -1.23429019   3.35162617
O    3.68865637  -2.96055312   1.97982428
H    2.76943246  -3.19140657   1.84578720
H    3.79650115  -2.12795636   1.52005913
O   -1.42845169  -2.78879834  -2.05247720
H   -1.41935288  -2.08555856  -1.40316767
H   -0.58273607  -2.71768876  -2.49512871
O    3.61993463  -0.56126071   0.55672653
H    3.37339097   0.14846634   1.14979953
H    2.78638879  -0.92049552   0.25277991
O    2.58587873   1.64031797   1.95179220
H    2.75587359   2.30862846   1.28794380
H    1.77412232   1.22042144   1.66723941
O    1.02019284  -2.09478046  -2.99938148
H    0.76336073  -1.25251636  -3.37469509
H    1.27027719  -1.88980314  -2.09845198
S    0.20683057  -0.14973876  -0.30629934
O    0.34167385   0.63010822   0.95614115
O    1.18199592  -1.27629178  -0.30074570
O   -1.17731294  -0.69148986  -0.40999368
O    0.48096545   0.73871837  -1.47059913
