65
Energy:  -1630.27539648
O   -1.05479831  -0.72670791  -3.16884787
H   -1.03896318  -1.56124223  -2.70030376
H   -0.72057351  -0.09025714  -2.53682252
O   -0.86632679   3.27499626  -1.06855948
H   -0.90144474   3.37418595  -0.11716052
H   -0.51217007   2.39630446  -1.20532790
O    4.08885465  -0.38197891  -1.29574004
H    3.92734260  -0.33924699  -0.35323291
H    3.59804088  -1.14974774  -1.58876685
O   -3.14400507   1.62724555  -0.67932215
H   -2.65342043   0.86125060  -0.38131161
H   -2.47140267   2.26633689  -0.91469445
O    1.92198630   3.72461280  -1.19243121
H    0.96552652   3.72692769  -1.15486569
H    2.13906252   2.96559424  -1.73372649
O   -3.54623579   0.53147391  -3.20959406
H   -2.72104318   0.05103468  -3.27643077
H   -3.52287913   0.92861166  -2.33898053
O   -1.02216831   3.27183397   1.63326964
H   -0.48099976   2.48248425   1.61608090
H   -1.89463513   2.95948011   1.87299566
O   -0.45729928  -3.01023869  -1.62310151
H    0.36884429  -3.25593697  -2.03945593
H   -0.19815869  -2.47505787  -0.87299519
O    0.57003563  -3.11001124   2.02743436
H   -0.35993435  -3.10564249   2.25408079
H    0.64776160  -2.46939613   1.32046703
O   -2.76721380  -2.70958391  -0.07780858
H   -2.13472917  -3.09094938  -0.68670547
H   -2.47032641  -1.80763566   0.04293526
O   -2.35185566  -0.26620018   2.86013637
H   -1.52671510  -0.08089182   3.30850644
H   -2.11743476  -0.30626053   1.93295039
O    2.31354407   1.34011003  -2.49568483
H    2.98453788   0.83740827  -2.03385142
H    1.50085036   1.13834505  -2.03194818
O   -3.47781872   2.12485665   2.02414727
H   -3.50536136   1.95482251   1.08257325
H   -3.16702524   1.30452935   2.40716477
O    0.17733764   0.22741699   3.79981446
H    0.87597779  -0.42259685   3.87475303
H    0.28192859   0.59190897   2.92092983
O   -2.12550208  -2.98997698   2.55939558
H   -2.41494237  -3.02034615   1.64751078
H   -2.24831092  -2.07712786   2.81988804
O    2.21987079  -1.61089425   3.59407047
H    1.65759484  -2.23850177   3.13999292
H    2.68129049  -1.15091158   2.89282896
O    2.25225459  -2.27670263  -1.95324643
H    1.76177236  -1.89854886  -1.22341168
H    1.98852324  -1.75860986  -2.71367888
O    3.17102163  -0.40591740   1.27269720
H    3.06079982   0.54436972   1.30490572
H    2.34585953  -0.73115960   0.91275710
O    2.62696101   2.29725936   1.09971569
H    2.49898815   2.88688322   0.35661509
H    1.76657365   1.90362193   1.24468122
O    1.51426639  -0.74195241  -4.06759355
H    0.57177567  -0.72551385  -3.90124190
H    1.84236493   0.06422500  -3.66927060
S   -0.10632310   0.05054851   0.10415029
O    0.31999664   0.95173571   1.21149536
O    0.73994416  -1.17579414   0.10807908
O   -1.53396915  -0.33057206   0.29565458
O    0.04873595   0.75682451  -1.19862786
