65
Energy:  -1647.49093823
O   -1.83886244   0.06649565  -2.88176062
H   -2.65622957  -0.39547965  -2.69542317
H   -1.41682415   0.16144480  -2.02788698
O   -2.68293878   2.67446148  -2.62087943
H   -1.91693118   3.08849473  -2.22333615
H   -2.37127654   1.81483037  -2.90395689
O    4.40840385  -0.71389885  -1.34846507
H    4.26154656  -0.70867687  -0.40261227
H    3.66517123  -1.20114042  -1.70403892
O   -3.44075173   1.24720979  -0.43443486
H   -2.58345411   0.85643676  -0.26541101
H   -3.28706802   1.86187498  -1.15193041
O   -0.45432445   3.56523453  -1.35133428
H   -0.59792627   3.68346743  -0.41238202
H    0.09980622   2.78720156  -1.41326766
O   -4.08468773  -1.05802092  -1.82019456
H   -3.48342094  -1.66089534  -1.38287028
H   -4.04977614  -0.25979786  -1.29307694
O   -0.85498352   3.55646195   1.37986747
H   -0.24793393   2.81722540   1.41525058
H   -1.69001480   3.19576179   1.67794467
O    0.23170362  -3.81879899  -1.09285519
H    0.48149092  -3.72584705  -0.17350864
H    0.85836871  -3.27325337  -1.56814741
O    0.77971987  -3.07960787   1.50723022
H   -0.12399913  -3.01210859   1.81539847
H    0.93380102  -2.26167202   1.03450219
O   -2.03011379  -2.36486978  -0.54323930
H   -1.29332099  -2.89138702  -0.85331642
H   -1.65467043  -1.49978403  -0.37922476
O   -1.89615515  -0.12490863   2.56275520
H   -1.09371239   0.04093710   3.05754066
H   -1.64059390  -0.01434187   1.64695211
O    3.46836249   1.87896166  -1.43256452
H    3.86239417   1.00989955  -1.50807567
H    2.52510832   1.71724738  -1.45132364
O   -3.19239785   2.26755572   2.09606399
H   -3.42226394   2.02423792   1.19929765
H   -2.78157289   1.48320932   2.45973338
O    0.52604715   0.33185167   3.70640868
H    1.15246930  -0.39146540   3.68111934
H    0.65602756   0.79101749   2.87664746
O   -1.85618238  -2.82028582   2.13678734
H   -2.04736026  -2.77660385   1.19989100
H   -1.92978822  -1.91509991   2.43919846
O    2.30844605  -1.75574355   3.38057674
H    1.78109430  -2.33457824   2.83004755
H    2.89521968  -1.31142392   2.76860564
O    2.04744485  -1.97776074  -2.09185158
H    1.78698222  -1.59451892  -1.25428559
H    1.67097749  -1.39390121  -2.75034396
O    3.62852567  -0.53642934   1.28899687
H    3.63961148   0.41308243   1.40956364
H    2.77495820  -0.71848182   0.89591758
O    3.27147971   2.15647007   1.29135101
H    3.41310548   2.21200862   0.34631691
H    2.33142475   2.00201228   1.38447082
O    0.84101759  -0.06884647  -3.63079313
H   -0.11015726  -0.16320860  -3.68172485
H    0.98624209   0.48938505  -2.86690880
S    0.42653466   0.43813217   0.01522230
O    0.65709423   1.31075068   1.20075139
O    1.21784028  -0.81602304   0.16023994
O   -1.02213639   0.10307742  -0.08064493
O    0.85334051   1.15472361  -1.21945720
