65
Energy:  -1649.67651306
O   -0.76970728   0.16613315  -3.31819405
H   -1.71501318   0.07222413  -3.20067938
H   -0.46262124   0.54929286  -2.49653800
O   -0.99834323   3.40670024  -0.51246116
H   -1.13586206   3.33955537   0.43242613
H   -0.54015880   2.59945847  -0.74625508
O    4.16017569  -0.15312727  -0.96602098
H    3.96227497  -0.22273648  -0.03209287
H    3.64866347  -0.85266124  -1.37251737
O   -3.12621922   1.47340207  -0.56008488
H   -2.54356992   0.75957086  -0.30086171
H   -2.54772104   2.22842033  -0.66741216
O    1.81206094   4.01414246  -0.25604755
H    0.85970977   3.94302497  -0.32086581
H    2.14397552   3.35872063  -0.86963274
O   -3.37939644  -0.30515593  -2.67011833
H   -3.42596394   0.36707983  -1.99029306
H   -3.15294604  -1.10724775  -2.19937343
O   -1.44316954   2.92852341   2.12780234
H   -0.79458853   2.23054098   2.03617787
H   -2.27221219   2.46953755   2.26290275
O   -0.25568725  -2.53221999  -2.98563016
H    0.63012408  -2.52085969  -2.62308212
H   -0.44519255  -1.61538378  -3.18495641
O    0.64327814  -3.36053451   1.39026085
H   -0.30499481  -3.49090142   1.38642221
H    0.77893551  -2.56984404   0.86811383
O   -2.35626070  -2.44390451  -1.22596198
H   -1.63586140  -2.66185157  -1.81736351
H   -2.02043125  -1.72214479  -0.69444214
O   -2.48038091  -1.06663547   2.50876967
H   -1.74484293  -0.91674442   3.10269592
H   -2.13707465  -0.84950720   1.64203558
O    2.55315432   1.89359762  -1.85470589
H    3.18107332   1.27253040  -1.48561905
H    1.70235244   1.59319916  -1.53512996
O   -3.72919230   1.39664257   2.14223330
H   -3.66670765   1.43463516   1.18783083
H   -3.36748090   0.54086446   2.37253859
O   -0.15262645  -0.44367538   3.81484356
H    0.57813843  -1.06154924   3.79371482
H   -0.00228314   0.13157309   3.06469829
O   -2.11393431  -3.55334540   1.32332808
H   -2.24373799  -3.29029343   0.41218236
H   -2.30241004  -2.76360474   1.83029795
O    1.99529734  -2.11271793   3.41432814
H    1.53638100  -2.65016297   2.76874277
H    2.51466847  -1.50140459   2.89204328
O    2.27665468  -1.85229396  -2.05673534
H    1.81073545  -1.56085891  -1.27301554
H    2.14137449  -1.14899669  -2.69179760
O    3.19920803  -0.38688138   1.57947336
H    3.04549404   0.54062728   1.75928312
H    2.42787398  -0.66683724   1.08662415
O    2.45253330   2.27712345   1.84311992
H    2.35307155   2.97295477   1.19338306
H    1.60931907   1.82411651   1.84060644
O    1.93673703   0.17620948  -3.87167004
H    0.98086097   0.22608096  -3.86491296
H    2.21755616   0.87191381  -3.27722244
S   -0.00169366   0.13236380   0.20703489
O    0.19463843   0.88866719   1.47571881
O    0.98636437  -0.98053547   0.13425762
O   -1.38253896  -0.42622815   0.17041103
O    0.19476150   1.04755163  -0.95224792
