65
Energy:  -1635.61309989
O   -1.05698212   0.59514599  -3.24077845
H   -1.79251603   0.03471941  -2.99350581
H   -0.59004555   0.75414988  -2.42046153
O   -2.31507139   2.87652454  -2.46912660
H   -1.62637420   3.30092177  -1.95744797
H   -1.87962946   2.13453274  -2.88873397
O    4.00621627  -0.93038551  -1.36175681
H    3.92756382  -0.91342526  -0.40794447
H    3.29175676  -1.49772381  -1.65142337
O   -3.45917916   1.32025597  -0.52253941
H   -2.72125977   0.84944187  -0.13518827
H   -3.06299470   1.87904254  -1.19114040
O   -0.38218710   3.67448582  -0.64818779
H   -0.13109791   3.82201572   0.26363510
H   -0.07398949   2.78917152  -0.84174569
O   -3.27809368  -0.74038076  -2.32092141
H   -3.00073822  -1.44874863  -1.73995604
H   -3.52059142  -0.02693243  -1.73065183
O   -0.24641013   3.64619748   2.08690203
H    0.08003701   2.75269207   1.98054324
H   -1.19668034   3.56590082   2.00461695
O   -0.14741561  -3.94490692  -0.95010369
H    0.14765494  -3.86491673  -0.04303876
H    0.47768163  -3.42258568  -1.45276243
O    0.53226976  -3.22440545   1.60768146
H   -0.36947489  -3.19127960   1.92704194
H    0.64857405  -2.40224043   1.13149888
O   -2.33633436  -2.39792921  -0.36518055
H   -1.57093255  -2.90065680  -0.64385042
H   -1.97721331  -1.56760893  -0.05239922
O   -2.01261859  -0.50824243   3.08569230
H   -1.18161690  -0.28311327   3.50400427
H   -1.89715369  -0.25374393   2.17019778
O    2.74964348   1.42604885  -1.93540369
H    3.19912526   0.60892125  -1.71976403
H    1.85726443   1.30156575  -1.61230085
O   -2.76509295   3.61077917   0.86952754
H   -2.05651523   3.75486820   0.24232118
H   -3.16361435   2.78466192   0.59577067
O    0.52860774   0.10179186   3.93373767
H    1.12538831  -0.64053808   3.83870584
H    0.59335250   0.56986155   3.10130104
O   -2.10071703  -3.09121075   2.27341729
H   -2.33804655  -2.94143133   1.35828196
H   -2.12276406  -2.22145535   2.67250539
O    2.22055426  -2.01741486   3.42063359
H    1.63038392  -2.55290254   2.89036596
H    2.75846183  -1.54908867   2.78223099
O    1.66816996  -2.16779157  -2.01621409
H    1.38209105  -1.71740465  -1.22151772
H    1.53240118  -1.52910000  -2.71612250
O    3.37405706  -0.72600613   1.27278836
H    3.44368749   0.22850066   1.29011577
H    2.49541484  -0.89641339   0.93340500
O    3.12790656   1.96436247   0.85900388
H    3.05173796   1.99256509  -0.09474389
H    2.23188545   1.82924847   1.16742280
O    1.50584129  -0.16288365  -3.88022069
H    0.58669140   0.09005062  -3.79408362
H    1.98343511   0.49033592  -3.36890848
S    0.09627165   0.30775473   0.29083915
O    0.56047642   1.14882185   1.42979483
O    0.89735839  -0.94760883   0.24162160
O   -1.34335181  -0.02868743   0.47628726
O    0.27060358   1.05849333  -0.98434709
