65
Energy:  -1632.20068939
O   -1.13734250   0.54914030  -3.20223531
H   -1.89430477   0.09571849  -2.83122502
H   -0.55513226   0.69406982  -2.45640790
O   -2.01605312   3.00953352  -2.39902818
H   -1.20764286   3.36650403  -2.03122830
H   -1.74421440   2.20447968  -2.83973655
O    4.04404688  -1.24118063  -1.52650867
H    3.95945547  -1.07925925  -0.58690365
H    3.30248595  -1.80745794  -1.74016550
O   -3.11871618   1.59314976  -0.31918484
H   -2.38883990   1.03272462  -0.05567744
H   -2.74866499   2.17132677  -0.98627202
O    0.30440707   3.66803470  -1.12488471
H   -0.17287166   3.84468852  -0.31418730
H    0.42097232   2.71799001  -1.13259734
O   -3.39944831  -0.50547900  -2.06236038
H   -3.12994225  -1.22882648  -1.49635088
H   -3.47916248   0.24405015  -1.47237432
O   -0.74994564   4.22602619   1.33147627
H    0.11408128   3.91113184   1.59705275
H   -1.36320267   3.60712358   1.72784382
O   -0.36274697  -4.01354895  -0.89964322
H   -0.03567646  -3.92967760  -0.00397457
H    0.30806408  -3.59629797  -1.44014854
O    0.48499956  -3.24321195   1.59705476
H   -0.37615127  -3.06247373   1.97386346
H    0.67087366  -2.48210655   1.04714455
O   -2.38073998  -2.26237917  -0.22386235
H   -1.70192697  -2.85064995  -0.55459219
H   -1.91184653  -1.46029770   0.00643330
O   -1.75925696  -0.01165400   3.03933809
H   -0.89859493   0.07044036   3.45013395
H   -1.57943749   0.00839147   2.09939395
O    2.68289819   0.82253676  -2.74075865
H    3.23406170   0.18199654  -2.29113785
H    1.93971033   0.95481265  -2.15219537
O   -2.67916334   2.49119466   2.25946844
H   -2.95464925   2.24231257   1.37720030
H   -2.37202219   1.67503911   2.65416613
O    0.85300122   0.16964139   3.83767929
H    1.34699801  -0.64779219   3.77442294
H    0.93847941   0.56929960   2.97211667
O   -2.03661621  -2.68400216   2.46380445
H   -2.31935580  -2.60277042   1.55293038
H   -1.99878964  -1.78295597   2.78461086
O    2.31731647  -2.11298008   3.30183225
H    1.67522485  -2.62272663   2.80775873
H    2.84021917  -1.67200072   2.63224894
O    1.65694862  -2.53698450  -2.08870287
H    1.41147130  -2.01092377  -1.32762939
H    1.39555147  -2.00661683  -2.84144021
O    3.43625151  -0.78084609   1.15648014
H    3.31697901   0.12925393   1.42800153
H    2.59872877  -1.02560123   0.76292908
O    1.90889392   3.46326872   1.23213155
H    1.71574224   3.66657856   0.31693246
H    1.63377070   2.55269953   1.33891553
O    1.04680469  -0.83101920  -4.13636309
H    0.20182430  -0.42553037  -3.94189255
H    1.69325677  -0.21985635  -3.78307636
S    0.34129817   0.20980090   0.17027155
O    0.95228175   0.98479379   1.28659815
O    1.01931543  -1.11187651   0.05381803
O   -1.10829958   0.00186559   0.44509745
O    0.50189507   0.96442073  -1.10442746
