65
Energy:  -1628.96210450
O   -1.57141613  -0.02367150  -3.28600571
H   -2.30089537  -0.41818861  -2.80804322
H   -0.88038778   0.07445259  -2.63096119
O   -2.27076505   2.55327589  -2.79589924
H   -1.42625401   2.89452812  -2.50165466
H   -2.07384189   1.67604531  -3.12441045
O    3.98347185  -0.98708347  -1.25119016
H    3.71015241  -0.17974316  -0.81561013
H    3.21221281  -1.55277733  -1.21401763
O   -3.28361277   1.49752951  -0.49677069
H   -2.54668788   0.97682328  -0.17733593
H   -2.94354068   1.94445536  -1.27190946
O    0.21397816   3.09007462  -1.82455508
H    0.08095089   3.42272722  -0.93693025
H    0.26638654   2.14010374  -1.71948111
O   -3.76615669  -0.84767152  -1.83833311
H   -3.42718976  -1.47183092  -1.19664915
H   -3.76994467  -0.00843618  -1.37800546
O   -0.21923331   3.70053772   0.80791932
H    0.24342108   2.87247114   0.93632691
H   -1.09197605   3.54641668   1.16958030
O   -0.45401958  -4.02250400  -0.37583924
H   -0.18590209  -3.83860306   0.52445255
H    0.24518803  -3.65255238  -0.91479783
O    0.12073706  -3.03085432   2.15042496
H   -0.73610293  -2.74643011   2.46848149
H    0.39551620  -2.33849793   1.54928363
O   -2.54840245  -2.28847118   0.14203562
H   -1.87486744  -2.91351645  -0.12610771
H   -2.08153769  -1.45813389   0.23589261
O   -1.85762174   0.55894970   2.96538389
H   -0.98313364   0.69813973   3.32887879
H   -1.70626552   0.38257181   2.03682911
O    2.80162366   2.63953007  -2.60602635
H    2.65479086   1.76678602  -2.97070399
H    1.92754797   2.95239150  -2.37291420
O   -2.69710550   2.93482365   1.77928317
H   -3.01592000   2.52651702   0.97437642
H   -2.42559099   2.20030617   2.32973370
O    0.78681176   0.84636979   3.57218054
H    1.21208246  -0.00498985   3.67495914
H    0.91637192   1.06963511   2.65044381
O   -2.35425758  -2.16346549   2.88235653
H   -2.58866985  -2.24079893   1.95753099
H   -2.23778913  -1.22379268   3.02264892
O    1.91316355  -1.68171520   3.75789612
H    1.23895264  -2.23658593   3.36573549
H    2.59384427  -1.62109258   3.08764952
O    1.67210752  -2.57310292  -1.68273597
H    1.36715776  -2.09840666  -0.90949541
H    1.48578336  -1.98480412  -2.41445974
O    3.35047511  -1.66856078   1.41366265
H    2.46451884  -1.48805100   1.09945005
H    3.91645798  -1.45407163   0.67211721
O    3.35957749   1.43797887  -0.18787890
H    3.20098010   1.97142123  -0.96667154
H    2.53375737   1.46714686   0.29523828
O    2.28226337  -0.00958920  -3.17581802
H    1.55992177   0.16050957  -2.57123480
H    2.99644998  -0.31512817  -2.61651910
S    0.20449113   0.12659579   0.07568227
O    0.83038201   1.22546787   0.86361676
O    0.88457320  -1.16089838   0.39182644
O   -1.24004435   0.02445952   0.42637506
O    0.34305366   0.41735416  -1.37908920
