65
Energy:  -1630.58389007
O   -3.02372234  -0.08020603  -3.51409775
H   -2.11625570  -0.36873783  -3.61149155
H   -2.97414475   0.67333877  -2.92592758
O   -0.08270912   3.04794150  -1.87047212
H   -0.26905794   3.35061618  -0.98171230
H    0.16315944   2.12895652  -1.76441980
O    4.40101288  -0.99594709  -0.37845197
H    4.04852641  -0.74617158   0.47571273
H    3.78336154  -1.64671696  -0.71197444
O   -2.61735129   1.85349877  -1.56738612
H   -2.26042687   1.14287907  -1.03460432
H   -1.85285982   2.37080273  -1.82072631
O    2.72915476   3.11115092  -1.68574708
H    1.78603268   3.22391694  -1.80422247
H    2.90881902   2.23056722  -2.01517832
O   -3.23944453  -1.58144181  -1.21905234
H   -3.28769506  -1.20886051  -2.09944254
H   -2.68365248  -0.97359932  -0.73134900
O   -0.76368960   3.63174254   0.70434243
H   -0.29418125   2.83278019   0.94403581
H   -1.68167953   3.43614634   0.89214144
O   -0.02833173  -3.42693555  -2.41680896
H    0.83986203  -3.14720809  -2.12659528
H   -0.54582035  -3.47590861  -1.61304343
O    0.32445207  -2.57913700   2.79752086
H   -0.63067698  -2.61462850   2.84948904
H    0.50334346  -2.13300093   1.96975741
O   -1.35974396  -3.14160103  -0.02686353
H   -0.69034865  -2.48895333   0.17854520
H   -2.04166756  -2.65006244  -0.48468648
O   -2.71119006   0.26225206   2.32055359
H   -1.97786903   0.51455849   2.88163609
H   -2.32084417   0.14253571   1.45479962
O    3.00167076   0.43329032  -2.30020995
H    3.53305343   0.11660554  -1.56974773
H    2.11245093   0.47742753  -1.94868206
O   -3.33608846   2.69200230   0.99853086
H   -3.23880189   2.40728694   0.08984811
H   -3.20819185   1.89594862   1.51445028
O   -0.36636780   0.97485171   3.58256836
H    0.30802040   0.40395395   3.95068269
H   -0.05829634   1.17057453   2.69768622
O   -2.39350342  -2.52708945   2.51326262
H   -2.17910274  -2.78355102   1.61632803
H   -2.59125934  -1.59236444   2.45483664
O    1.68514103  -0.74448332   4.25534200
H    1.18570027  -1.47370785   3.88788812
H    2.28067152  -0.48339240   3.55291277
O    2.23046270  -2.24924623  -1.45375045
H    1.69140955  -1.94426478  -0.72392865
H    2.29042645  -1.49462072  -2.03956317
O    3.00237899  -0.30478982   1.84526035
H    3.00596488   0.62683908   1.62551827
H    2.19036038  -0.63825789   1.46361042
O    2.82883918   2.29694297   0.97507707
H    2.89690230   2.66263274   0.09310755
H    1.91330954   2.02889598   1.05374181
O   -0.42527019  -0.90559154  -3.47761349
H   -0.34614429  -1.80582364  -3.16209313
H   -0.06133496  -0.37107481  -2.77186929
S    0.02076314   0.12714030   0.03784384
O    0.38518422   1.20491348   0.99997806
O    0.62968177  -1.15920901   0.47900544
O   -1.46161089  -0.01564628  -0.00989736
O    0.52979747   0.47850301  -1.31771078
