65
Energy:  -1631.56413136
O   -0.49841814   1.67684288  -3.48054107
H   -0.16254322   2.56659094  -3.58902276
H   -0.22369589   1.42235990  -2.59963362
O   -2.52408465   3.03190224  -2.16305417
H   -1.85981145   3.40380305  -1.58282770
H   -2.04599559   2.40232085  -2.70276702
O    4.13152112  -0.91245389  -1.47973931
H    4.03410191  -0.95902858  -0.52864933
H    3.39856687  -1.42456979  -1.82142225
O   -3.45789108   1.31960418  -0.25242337
H   -2.66026983   0.81676647  -0.08754030
H   -3.21067884   1.94531540  -0.93330767
O   -0.36250089   3.73134499  -0.67484230
H   -0.50165059   3.74945925   0.27201623
H    0.00904954   2.86602040  -0.84629338
O   -4.63675910  -0.92413607  -1.38089436
H   -3.91467888  -1.52462396  -1.19583679
H   -4.35313337  -0.08717756  -1.01307817
O   -0.71090836   3.32991463   2.01020770
H   -0.14940323   2.56443364   1.88780389
H   -1.57815736   2.96554277   2.18725055
O   -0.15425833  -3.78868486  -1.39065240
H    0.13331325  -3.77582969  -0.47776183
H    0.48080931  -3.23927749  -1.85007865
O    0.55528212  -3.28288731   1.22595629
H   -0.33231129  -3.20771471   1.57632589
H    0.71911198  -2.43929739   0.80435495
O   -2.35043876  -2.31143010  -0.59617658
H   -1.63583840  -2.80950296  -0.99304128
H   -1.94853555  -1.48365934  -0.33254571
O   -1.96705050  -0.38383565   2.85199943
H   -1.12945084  -0.27887368   3.30326614
H   -1.75978334  -0.25007760   1.92713136
O    2.98211266   1.52833038  -1.85001937
H    3.40359103   0.68450197  -1.68710395
H    2.07397072   1.39983181  -1.57616140
O   -3.13524108   2.07727843   2.37723823
H   -3.35731067   1.90227707   1.46274850
H   -2.78486469   1.24785085   2.70207378
O    0.57854711  -0.08003585   3.79551908
H    1.14155227  -0.84420493   3.67181514
H    0.68738497   0.43062830   2.99326707
O   -2.02684338  -2.99780881   2.02963973
H   -2.28227061  -2.83888768   1.12094130
H   -2.06497526  -2.13574732   2.44391960
O    2.19906128  -2.22600247   3.17040648
H    1.62436213  -2.71643194   2.58267213
H    2.77487093  -1.73245484   2.58638094
O    1.75434378  -1.98416805  -2.31277877
H    1.48006373  -1.59785113  -1.48105674
H    1.65505388  -1.27699631  -2.95018091
O    3.47514909  -0.82938089   1.15929645
H    3.55636429   0.11936815   1.25682182
H    2.60495990  -0.95822511   0.78193481
O    3.26903354   1.89320344   0.97217787
H    3.23713438   1.98373682   0.01980295
H    2.35786305   1.75484999   1.23074802
O    1.77988396   0.22482186  -3.98141366
H    0.91242376   0.62561209  -3.92562978
H    2.31826424   0.73240293  -3.37417401
S    0.23741920   0.31582874   0.15580144
O    0.67665650   1.07945314   1.35748707
O    1.04182913  -0.93297104   0.03950963
O   -1.20501376  -0.03311238   0.28894522
O    0.43620493   1.14994524  -1.06273618
