65
Energy:  -1632.22750035
O   -1.06618599   0.62517898  -3.53395642
H   -1.89218344   0.24573314  -3.23398824
H   -0.53959943   0.71241133  -2.73939429
O   -0.78455104   3.19167884  -1.92805202
H   -0.25969904   2.42422042  -1.70052223
H   -1.05302549   3.03879929  -2.83402175
O    3.90924190  -1.44024415  -1.74366068
H    3.90864744  -1.34254817  -0.79145955
H    3.12077095  -1.94878244  -1.93322391
O   -2.86978594   1.89593646  -0.65145993
H   -2.34179969   1.24126501  -0.19443950
H   -2.23222178   2.43110063  -1.12405183
O   -0.02498897   3.79254782   0.80425311
H    0.37017271   2.94449056   1.00643612
H   -0.17827830   3.76681924  -0.14024266
O   -3.37599691  -0.23706671  -2.31684787
H   -3.17403957  -0.95936741  -1.72209853
H   -3.33838069   0.54494224  -1.76614026
O   -2.69745203   3.67552366   1.44308492
H   -1.74834132   3.78040617   1.37659908
H   -2.91708988   3.04063981   0.76123922
O   -0.59469414  -3.86743726  -0.86508390
H   -0.23188143  -3.78135624   0.01649924
H    0.06818888  -3.47951582  -1.43634121
O    0.38969690  -3.12799973   1.59762586
H   -0.48386228  -2.94608734   1.94408523
H    0.59708653  -2.36564847   1.05721681
O   -2.56026396  -2.01712312  -0.35161546
H   -1.90017603  -2.65759050  -0.61678959
H   -2.05542705  -1.25037076  -0.08057607
O   -1.70261858   0.04157221   3.02700402
H   -1.59764871   0.14788020   2.08153494
H   -0.82697442   0.19024114   3.38390274
O    2.85403447   0.97942843  -2.43379260
H    3.24225219   0.14102166  -2.18360678
H    1.97924802   0.96421667  -2.04552836
O   -3.31748265   2.20339683   3.69508212
H   -3.12800554   2.78385378   2.95792543
H   -2.77870532   1.42857485   3.53507670
O    0.94201258   0.43096396   3.62768429
H    1.43186493  -0.38852782   3.55905678
H    1.00405534   0.82136968   2.75592404
O   -2.16801985  -2.56475879   2.33037173
H   -2.46454958  -2.42592258   1.43091274
H   -2.05990622  -1.68278010   2.68626059
O    2.30918129  -1.93225048   3.19931441
H    1.64064079  -2.44620317   2.74639268
H    2.86592629  -1.59221487   2.49885553
O    1.40795678  -2.46028355  -2.14301644
H    1.24690435  -1.92984158  -1.36267979
H    1.27845840  -1.85660748  -2.87447883
O    3.52878695  -0.96157256   0.91019812
H    3.69407435  -0.02131528   0.84071306
H    2.61523571  -1.06497760   0.64380860
O    3.51452873   1.70363320   0.25781841
H    3.37471961   1.64863586  -0.68751780
H    2.63351658   1.69112510   0.63184111
O    1.31553836  -0.59552758  -4.16556396
H    0.44447356  -0.20886731  -4.07627904
H    1.89978446   0.02641173  -3.73188222
S    0.29734781   0.30717462   0.04217001
O    0.93201774   1.22507897   1.02946210
O    0.98569594  -1.01380043   0.07825005
O   -1.14143720   0.12701842   0.38501324
O    0.41311472   0.89040151  -1.32404536
