60
Energy:   -339.86899076
    O     -0.30211502     -1.43144742     -3.47208360
    H     -0.74651993     -0.57163006     -3.51260093
    C     -1.29612915     -2.43599473     -3.59599645
    H     -0.77838522     -3.39784463     -3.54833945
    H     -1.83464121     -2.38533120     -4.55527498
    H     -2.03550093     -2.40551032     -2.78041236
    O     -1.53114009      1.08048103     -3.24331701
    H     -0.94258591      1.56813209     -2.64815006
    C     -2.86536210      1.42805388     -2.90928327
    H     -3.51495522      0.87004526     -3.58909233
    H     -3.07165520      2.50138497     -3.04411970
    H     -3.13163860      1.14996772     -1.87751671
    O      0.40696794     -1.91146522      2.89649231
    H      1.14000949     -1.98605523      2.26759669
    C      0.04816524     -3.22424994      3.29698034
    H     -0.77863987     -3.12174849      4.00505659
    H      0.86946892     -3.75314449      3.80541731
    H     -0.29751157     -3.84580281      2.45617304
    O      0.37989322      2.17554242     -1.47369758
    H      0.54274027      2.26311359     -0.52278465
    C      1.56110933      1.66056632     -2.06704562
    H      1.36026502      1.56822170     -3.13784870
    H      1.83031217      0.66415276     -1.68303106
    H      2.42744203      2.32819669     -1.93853617
    O      1.91772677     -2.05015064     -1.88286248
    H      1.16487675     -1.86074928     -2.46231675
    C      2.88970954     -2.74048807     -2.65176917
    H      3.73064040     -2.94597908     -1.98386653
    H      3.26408996     -2.14412371     -3.49850773
    H      2.51975196     -3.70208255     -3.04067116
    O     -3.41342453      1.29333268      0.89912559
    H     -2.83231260      0.52203393      0.97548281
    C     -2.59013689      2.44423623      0.79836716
    H     -3.26066066      3.30366255      0.71310604
    H     -1.94230623      2.42702906     -0.09202415
    H     -1.95617251      2.59265592      1.68653273
    O      0.17495528      0.82396051      3.56998054
    H      0.27540083     -0.13541167      3.48087948
    C     -1.11564600      1.07392592      4.10327166
    H     -1.21203745      2.15900178      4.19710271
    H     -1.25626761      0.63110064      5.10172480
    H     -1.92380726      0.71489528      3.44695641
    O     -1.62106105     -0.91335160      1.13429331
    H     -1.02453523     -1.28705202      1.79982183
    C     -0.91190572     -0.85091623     -0.09279035
    H     -1.59836379     -0.42777535     -0.83117528
    H     -0.59396295     -1.84252529     -0.45112149
    H     -0.02510889     -0.20018253     -0.03880553
    O      0.84697462      2.32911384      1.29426805
    H      0.61070423      1.82829749      2.08911555
    C      1.24136840      3.62829419      1.70550732
    H      1.50406509      4.17881932      0.79809466
    H      2.12336060      3.61618319      2.36484064
    H      0.43374340      4.17635789      2.21555179
    O      2.34537902     -1.87819923      0.88817424
    H      2.24800189     -1.99126330     -0.06898692
    C      3.00275677     -0.64092777      1.11076718
    H      3.10428820     -0.52949358      2.19370716
    H      2.42957974      0.21945078      0.73130155
    H      4.01074231     -0.60931319      0.66833865
