60
 energy: -82.375824204859 gnorm: 0.000047414214 xtb: 6.3.3 (5b13467)
O        -0.35372537046656   -1.55742914538822   -3.43873898533522
H        -0.77054746370345   -0.67481894416877   -3.36158370950852
C        -1.36782976719768   -2.51346184764240   -3.63489620752042
H        -0.88583960272763   -3.48888875024830   -3.69903914597396
H        -1.91130501705040   -2.32676464377322   -4.56539272039355
H        -2.07920752787627   -2.52024427297167   -2.80376289031959
O        -1.50717600317987    0.89186659053946   -3.03755301532389
H        -0.90114334928859    1.38172650329464   -2.44713954825336
C        -2.80844254796540    1.42397502186554   -2.90014717736767
H        -3.46237478859828    0.83590377777860   -3.54382094353417
H        -2.83923022342673    2.46800057004615   -3.22464720183547
H        -3.16685952781365    1.35953584966661   -1.86952749820682
O         0.32701498574934   -1.83074361568425    2.67894516092191
H         1.08226730657726   -1.84225032702774    2.03868064568821
C         0.35525245804351   -3.02161932433189    3.43188309922141
H        -0.49790010996036   -2.99764219854958    4.10938374894375
H         1.27627135230651   -3.09527436196790    4.01606315181130
H         0.27315660080828   -3.89777338595336    2.78408480034338
O         0.41195193639990    2.06815991974231   -1.42647703515712
H         0.51683268689264    1.98741041446607   -0.45877414505371
C         1.63537093377902    1.70740950771964   -2.03020617620096
H         1.51527222346822    1.84394183554609   -3.10392620589583
H         1.88398040934587    0.66197494996907   -1.82902013187061
H         2.45144888087527    2.34530741387532   -1.67892859770604
O         1.81415509852978   -1.74694305163129   -1.79048741957870
H         0.98730516783019   -1.69170322160241   -2.31633957535561
C         2.76048096149426   -2.46055200996891   -2.55175050071197
H         3.69333140787505   -2.47304506291340   -1.98850356437433
H         2.93201961633408   -1.97864309605238   -3.51746471416271
H         2.43554877859480   -3.49150584077962   -2.72219045889725
O        -3.33353973943351    1.52003059451120    0.49703763899517
H        -2.81020656301166    0.74279539644330    0.75404603274204
C        -2.56280198311464    2.67403546687930    0.71722260190285
H        -3.18293342955581    3.52642849371122    0.43976194055902
H        -1.65763477724226    2.67967351376012    0.10154347492931
H        -2.27920334546072    2.77422748123194    1.77049235281174
O         0.07992211609610    0.76681474808935    3.58740713426980
H         0.21835085555873   -0.17843306013675    3.38309143227495
C        -1.23826632751450    0.93102006685759    4.06268450088218
H        -1.37335459409425    1.99182018798725    4.27118810898420
H        -1.39534797615795    0.36907054430940    4.98775856413093
H        -1.97301927146853    0.60965216713914    3.31980410848581
O        -1.69017247298691   -0.75073107458126    1.07130135838818
H        -1.10482523401049   -1.14892639445180    1.73804173908610
C        -1.12693288776297   -1.01639385116441   -0.19556063246294
H        -1.82412600467186   -0.64096965739409   -0.94079880610661
H        -0.98324373506073   -2.08968702235394   -0.34651824291125
H        -0.16655811847558   -0.50845403473462   -0.31414999507573
O         0.95803722792950    1.98180993156969    1.29420951575828
H         0.55069592607736    1.53153911293852    2.06542621466866
C         1.32624562228137    3.27775350045134    1.70378523674948
H         1.83752464624772    3.75367067894026    0.86759072401777
H         2.00227298584383    3.24105663524504    2.56192777217672
H         0.44728119660766    3.87455747543314    1.96660844363100
O         2.34835483492761   -1.80893151291101    0.91547584356181
H         2.08342621967783   -1.84429000906455   -0.02575218514038
C         3.11009958489335   -0.63241461545722    1.10756108294921
H         3.46318782076945   -0.64289001918167    2.13811750864699
H         2.50433617380804    0.26235528761747    0.94463670405507
H         3.97235174365490   -0.61209928553557    0.43733675864835
