61
Energy:   -384.75396338
    C      2.37559835      2.99272095      1.07076921
    H      2.74507113      2.66917903      2.02140619
    H      1.59114381      2.33874892      0.75162856
    H      1.99634119      3.98961512      1.15600480
    C      3.51871071      2.96482785      0.03920917
    N      4.36980982      2.94406017     -0.72883417
    C      1.63710534      1.75097752     -2.82609346
    H      1.47339257      2.05585248     -1.81359676
    H      2.47613450      2.28047741     -3.22679166
    H      1.83223779      0.69931287     -2.85479701
    C      0.38430752      2.06371295     -3.66531581
    N     -0.54845741      2.29655869     -4.29015499
    C      0.35026905     -3.02272610     -2.22065459
    H      0.28418850     -1.99340228     -2.50530528
    H     -0.25308319     -3.19239891     -1.35343126
    H      0.00159042     -3.63793972     -3.02367047
    C      1.81559102     -3.37453384     -1.90338055
    N      2.90658984     -3.63647070     -1.66715560
    C      0.41907232      0.54480319      3.41219988
    H      1.13683453      0.39763521      2.63241839
    H     -0.36793507     -0.17326506      3.31271897
    H      0.89504032      0.42292557      4.36272573
    C     -0.16630555      1.96551179      3.30963359
    N     -0.60214598      3.02329391      3.23326832
    C     -2.68207847     -2.75487018      0.53047544
    H     -2.01424228     -2.16064127     -0.05756114
    H     -3.69230297     -2.53282758      0.25653634
    H     -2.48481173     -3.79188287      0.35557659
    C     -2.47321149     -2.43716732      2.02280231
    N     -2.31770054     -2.20062310      3.13390749
    C      1.27903017     -2.89424224      1.80058726
    H      0.58213978     -2.22869321      2.26565549
    H      1.71357173     -2.41650255      0.94745333
    H      2.04959362     -3.14825156      2.49816186
    C      0.54757971     -4.17414209      1.35512504
    N      0.00298159     -5.12708571      1.02345816
    C      3.86550103     -0.61403815     -0.22554956
    H      4.26933186     -1.58942768     -0.40000901
    H      4.46708753      0.11578694     -0.72589755
    H      2.86473874     -0.56984790     -0.60160960
    C      3.85880123     -0.32420932      1.28691676
    N      3.85381292     -0.10841858      2.41301668
    C     -2.61011152     -0.14355043     -2.62590236
    H     -3.24684132      0.46209587     -3.23636768
    H     -1.58712417      0.07537298     -2.85055432
    H     -2.80128623      0.06538752     -1.59406116
    C     -2.89088550     -1.63103154     -2.90903824
    N     -3.09993449     -2.73852884     -3.11984577
    C     -3.20673813      0.98952431      1.89955725
    H     -3.22602455      2.05266374      2.01898411
    H     -2.23871378      0.68636282      1.55908541
    H     -3.41744517      0.52127935      2.83830550
    C     -4.26895279      0.56964616      0.86659919
    N     -5.05981988      0.25702779      0.09751496
    C     -1.43196709      3.23299333     -0.52853465
    H     -1.19678396      2.76469430      0.40435607
    H     -1.49444675      2.48923502     -1.29522817
    H     -2.37049318      3.74025869     -0.44637794
    C     -0.32975301      4.24736875     -0.88597927
    N      0.49089546      5.00261735     -1.15211303
   Cl      0.02550211     -0.05580980     -0.14224699
