61
Energy:   -386.40707909
    C      2.72759948      2.63096294     -0.07827698
    H      3.37728777      1.95140047     -0.58915873
    H      2.08616490      2.08392899      0.58067266
    H      3.31209981      3.32553503      0.48813988
    C      1.87447524      3.39668162     -1.10660277
    N      1.23928546      3.96679399     -1.87223806
    C      1.25635456      0.55465382     -3.49930875
    H      1.16842475      1.60591802     -3.67822804
    H      0.54034282      0.25724428     -2.76189852
    H      1.07396117      0.02155876     -4.40894681
    C      2.67594208      0.23692445     -2.99391849
    N      3.73288952      0.00036049     -2.61763247
    C      1.17988596     -3.03152621     -1.55640699
    H      1.82612352     -2.20405451     -1.35008738
    H      1.70980027     -3.94691114     -1.39466543
    H      0.33062660     -2.99146144     -0.90675136
    C      0.70940426     -2.96266006     -3.02116104
    N      0.35910925     -2.91138608     -4.11173701
    C     -1.11248711      3.16436550      1.32389645
    H     -1.23618712      4.18338606      1.02191036
    H     -1.58331893      2.52116577      0.61009634
    H     -0.06929454      2.93283944      1.37906917
    C     -1.75822435      2.95668854      2.70646424
    N     -2.23900507      2.80206360      3.73584881
    C     -0.24044428     -3.36680024      1.99296567
    H      0.42686193     -4.19749846      2.09065425
    H      0.28107761     -2.53949943      1.55881434
    H     -1.06134612     -3.64081975      1.36373393
    C     -0.76998403     -2.96752654      3.38284630
    N     -1.16425044     -2.67024913      4.41767561
    C      0.44394606      0.40432154      3.92604842
    H     -0.31281898      0.81081307      4.56399159
    H      0.91695591     -0.42148637      4.41513132
    H     -0.00147544      0.07018580      3.01234601
    C      1.49341729      1.48873127      3.61902126
    N      2.27479632      2.29612361      3.39042559
    C      3.47238937     -0.84589509      1.03469105
    H      2.82095822     -0.29591488      1.68126619
    H      3.21480817     -0.64664327      0.01545127
    H      4.48486990     -0.54832287      1.21141974
    C      3.32347224     -2.35251338      1.31669285
    N      3.21259668     -3.47425919      1.52665601
    C     -2.45331511     -1.29048378     -2.39128784
    H     -2.42060840     -1.62628617     -3.40670264
    H     -1.54346236     -0.77928067     -2.15519793
    H     -3.28055914     -0.62417631     -2.26244388
    C     -2.61928341     -2.50191650     -1.45507992
    N     -2.74285436     -3.40388323     -0.75803057
    C     -3.02930678     -0.54706628      1.78950814
    H     -3.77502955     -1.04808512      2.37069472
    H     -2.41050194      0.04145590      2.43419512
    H     -2.42758346     -1.27101059      1.28085033
    C     -3.71267283      0.36893459      0.75725175
    N     -4.22146991      1.05093888     -0.01131005
    C     -1.86721409      2.51111381     -2.29529406
    H     -1.46772896      3.50360381     -2.31188975
    H     -1.21125756      1.87181264     -1.74219900
    H     -2.83064498      2.52216225     -1.82991472
    C     -1.99964102      1.98688349     -3.73725303
    N     -2.09823889      1.59657019     -4.81085703
   Cl      0.11428202     -0.00850593      0.11604988
