61
Energy:   -385.20169631
    C      1.21943637      0.30155721      3.71021296
    H      1.10239516     -0.42136040      4.49033582
    H      0.68700841     -0.02276514      2.84059547
    H      0.83057277      1.24373572      4.03576455
    C      2.71386201      0.45276740      3.37046680
    N      3.82652984      0.56535027      3.11751033
    C      3.97746715     -0.27720380     -0.18466072
    H      4.23917016     -1.24718848     -0.55282025
    H      3.02805181     -0.32628141      0.30635963
    H      4.72143591      0.05342992      0.50966696
    C      3.89649983      0.71362048     -1.36080337
    N      3.83621597      1.45133419     -2.23649504
    C      1.64705064     -1.22793773     -3.37770833
    H      1.07729694     -1.61259906     -4.19765745
    H      2.35033537     -0.50706598     -3.73914104
    H      0.98935898     -0.76264284     -2.67354824
    C      2.40145147     -2.38150828     -2.69086455
    N      2.96313718     -3.24039399     -2.17947814
    C     -2.72816462     -1.73826207      1.74268411
    H     -3.70708432     -1.44757154      2.06223915
    H     -2.79181224     -2.64514774      1.17840895
    H     -2.30867435     -0.96662305      1.13153745
    C     -1.83139786     -1.96198544      2.97449465
    N     -1.16371424     -2.12855767      3.89163359
    C      1.35086901     -3.09364718      1.16854893
    H      1.69942691     -2.60267213      0.28404281
    H      2.14220029     -3.68042470      1.58614445
    H      1.03504836     -2.36142974      1.88200113
    C      0.16482421     -4.00961059      0.81371269
    N     -0.71824006     -4.69158699      0.54952098
    C     -3.46910031      1.03818389     -1.32637995
    H     -2.53698856      0.90985873     -0.81686988
    H     -3.99181267      1.87323788     -0.90882072
    H     -3.28607108      1.21539186     -2.36560886
    C     -4.32175620     -0.23402659     -1.16495368
    N     -4.95659726     -1.18124511     -1.04476448
    C      1.97882881      3.11263323      0.73379408
    H      1.10955332      3.07958663      0.11076259
    H      2.39941875      2.13183819      0.81153905
    H      2.69982976      3.77694408      0.30513592
    C      1.58689748      3.61569720      2.13554887
    N      1.29508680      3.99025119      3.17921902
    C     -1.80007102     -2.62742036     -1.95687178
    H     -1.45597778     -2.10497998     -1.08879571
    H     -1.13707664     -3.43964555     -2.17047839
    H     -2.78395738     -3.00783274     -1.77755880
    C     -1.83346357     -1.66283569     -3.15689734
    N     -1.85832584     -0.94465856     -4.05037092
    C     -1.72685590      2.47419860      1.91835853
    H     -1.54954670      2.69467763      0.88644253
    H     -1.01908217      1.74532840      2.25407222
    H     -1.62055302      3.36770554      2.49736124
    C     -3.15371290      1.91991878      2.08703862
    N     -4.21607280      1.50723226      2.21262862
    C      0.08598196      2.17557063     -2.87443815
    H     -0.47283196      1.26398490     -2.91491812
    H      1.00467453      2.00785642     -2.35215948
    H      0.29687938      2.50910160     -3.86901266
    C     -0.73551035      3.24892239     -2.13642298
    N     -1.34714872      4.04808155     -1.58693713
   Cl      0.16480499      0.06911377     -0.02234655
