61
Energy:   -385.85073351
    C      1.13947077      0.98381005     -3.40951285
    H      1.58605720      1.84632540     -3.85843154
    H      1.73517825      0.12124890     -3.62403547
    H      1.08148318      1.12273762     -2.35015660
    C     -0.27719706      0.78392374     -3.97933539
    N     -1.33197065      0.63509931     -4.40359418
    C     -0.94419460      3.40663258     -1.46794208
    H     -0.97992013      2.38543460     -1.15048571
    H     -0.07343965      3.56276557     -2.06986185
    H     -1.81909568      3.63283963     -2.04089720
    C     -0.88680912      4.32611208     -0.23389818
    N     -0.84408302      5.01070636      0.68490360
    C      1.26872808     -0.42920224      3.33344707
    H      1.60141611      0.17420026      4.15205826
    H      0.26336882     -0.16426323      3.08054556
    H      1.90411263     -0.26536282      2.48825939
    C      1.32239311     -1.91477383      3.73568718
    N      1.36234916     -3.02084941      4.03517323
    C      1.92756391     -3.45469112      0.55709558
    H      1.54181785     -2.47827586      0.76376780
    H      2.59378850     -3.40542638     -0.27873746
    H      2.45610755     -3.81801834      1.41356160
    C      0.76317468     -4.40798567      0.22994543
    N     -0.10376602     -5.11775680     -0.01363273
    C      3.57277217     -0.42859690     -1.06850070
    H      2.55608519     -0.76206827     -1.06182132
    H      4.18241632     -1.15283950     -1.56720478
    H      3.63777809      0.50733646     -1.58299276
    C      4.06505051     -0.25332354      0.38013358
    N      4.43157411     -0.12282456      1.45870765
    C     -2.43646755      2.07431396      2.09556369
    H     -1.97428107      1.61141637      1.24879946
    H     -2.83136528      3.02688643      1.80997563
    H     -3.22994962      1.45200254      2.45335385
    C     -1.39129013      2.26521174      3.21035615
    N     -0.61310804      2.40734382      4.04036980
    C      1.90166038      2.70903333      1.38941039
    H      2.68293499      2.22776070      1.93976193
    H      1.03472082      2.08198301      1.37832943
    H      1.66086461      3.64235643      1.85397952
    C      2.37152060      2.96090273     -0.05537097
    N      2.72135289      3.14843096     -1.13107636
    C     -3.45463387      0.10917377     -1.32932893
    H     -3.18231744     -0.27539095     -0.36867607
    H     -2.59972506      0.09974128     -1.97271144
    H     -4.22583746     -0.50034244     -1.75198021
    C     -3.96703980      1.55348549     -1.17765891
    N     -4.34854931      2.62884122     -1.06473369
    C     -0.75298449     -2.70960854     -2.59071249
    H     -0.89803606     -2.64397639     -1.53262335
    H     -1.18709131     -3.61737371     -2.95459812
    H     -1.22147091     -1.87405864     -3.06744715
    C      0.75484359     -2.70013374     -2.90370564
    N      1.87749014     -2.69307932     -3.13674327
    C     -1.94862914     -2.62844630      1.84313370
    H     -1.10257235     -2.06059503      2.16968083
    H     -1.84472441     -2.85721798      0.80305369
    H     -2.00605274     -3.53766612      2.40431188
    C     -3.23321879     -1.80786913      2.06241096
    N     -4.18965418     -1.19691213      2.22567284
   Cl     -0.09859923     -0.19912746     -0.04304228
