61
Energy:   -384.69750954
    C      2.89758446      2.45500212      0.62996482
    H      3.26964579      2.81375684      1.56685628
    H      3.71840792      2.16659669      0.00709224
    H      2.26330597      1.60983568      0.79814204
    C      2.09360753      3.57016162     -0.06403835
    N      1.49501017      4.40044855     -0.58075526
    C      1.39619657      1.40010217     -3.13305538
    H      1.29419437      2.43965509     -2.90105223
    H      0.64156974      0.84383841     -2.61729569
    H      1.28610800      1.25757791     -4.18779063
    C      2.78754976      0.90965458     -2.69124381
    N      3.82347546      0.54449405     -2.36229502
    C      1.21314075     -2.82477735     -2.22401644
    H      0.50464135     -3.62007107     -2.12185641
    H      1.04214289     -2.09454311     -1.46085408
    H      2.20450695     -3.21573414     -2.12786588
    C      1.05213281     -2.16845363     -3.60782120
    N      0.93225509     -1.67979080     -4.63812675
    C     -0.60456051      2.82870649      2.34160948
    H      0.36213947      2.37481997      2.27544032
    H     -0.49543447      3.88993831      2.42393577
    H     -1.16906589      2.59529119      1.46311641
    C     -1.34048131      2.29052584      3.58273081
    N     -1.88840779      1.88982588      4.50680206
    C     -1.06804165     -3.41388186      0.69797974
    H     -1.25073913     -4.31815469      0.15593505
    H     -0.01438638     -3.23416734      0.74709565
    H     -1.54641712     -2.59661098      0.19985896
    C     -1.63306771     -3.54731887      2.12435280
    N     -2.05375530     -3.64666879      3.18635238
    C      0.54200253     -1.01625089      3.50462218
    H     -0.41558741     -0.53943563      3.48077054
    H      0.59430059     -1.66928282      4.35062059
    H      0.68076901     -1.58281861      2.60760268
    C      1.64522804      0.05280525      3.61238313
    N      2.46662958      0.84876615      3.69261605
    C      3.47281774     -1.18753597      0.57362761
    H      3.63198658     -0.60285959      1.45551139
    H      2.72657524     -0.72015541     -0.03430052
    H      4.38764009     -1.25923772      0.02330223
    C      3.00110382     -2.59851710      0.97139415
    N      2.64989136     -3.64905669      1.26754942
    C     -2.37865453     -0.64122918     -2.68136224
    H     -1.44096751     -0.30311564     -3.07036415
    H     -2.52903503     -0.22976328     -1.70515499
    H     -3.16900478     -0.32248880     -3.32839403
    C     -2.37427379     -2.17881386     -2.59525675
    N     -2.37101213     -3.32361555     -2.53114730
    C     -3.38136743     -0.36523003      2.05780300
    H     -3.61584910      0.14163302      2.97049593
    H     -2.32021564     -0.38180576      1.92149004
    H     -3.75102683     -1.36838304      2.10179228
    C     -4.03912240      0.37291449      0.87708243
    N     -4.52885088      0.92249664     -0.00201770
    C     -1.72579307      2.96811204     -1.41241343
    H     -2.04174336      3.93672600     -1.08551500
    H     -0.70676199      2.81014705     -1.12689320
    H     -2.34296679      2.22015639     -0.96013249
    C     -1.84943527      2.87788033     -2.94478768
    N     -1.94149251      2.81069872     -4.08570996
   Cl     -0.08904194      0.05720074      0.10558810
