61
Energy:   -384.69714038
    C      2.95836705      2.45773976     -0.01320448
    H      3.36172182      3.02049374      0.80258536
    H      3.75683644      2.00813893     -0.56565793
    H      2.31222261      1.69359800      0.36558808
    C      2.15860224      3.39467840     -0.93739182
    N      1.56314098      4.09227180     -1.62549129
    C      1.38214493      0.56714458     -3.40217998
    H      1.31556926      1.63330162     -3.46363756
    H      0.62645212      0.20020384     -2.73947192
    H      1.23967193      0.14423629     -4.37467631
    C      2.77065395      0.16946690     -2.86786251
    N      3.80446203     -0.12662221     -2.47003887
    C      1.09334192     -3.32027059     -1.48045542
    H      0.96826424     -2.42178043     -0.91303037
    H      2.06638925     -3.72561928     -1.29668812
    H      0.34956001     -4.03232365     -1.18947776
    C      0.94338918     -3.00520098     -2.98040386
    N      0.83174255     -2.77061733     -4.09718365
    C     -0.50609273      3.32005724      1.60259163
    H     -0.35730087      4.36598818      1.43291656
    H     -1.10970182      2.91378002      0.81805739
    H      0.44125299      2.82285643      1.61764249
    C     -1.21496683      3.11503117      2.95428014
    N     -1.74275582      2.96237995      3.96067367
    C     -1.13947725     -3.11975540      1.52013503
    H     -1.35418010     -4.12452556      1.22140474
    H     -0.08065324     -2.96552857      1.51792258
    H     -1.60062719     -2.43809245      0.83634015
    C     -1.69067048     -2.87669348      2.93742361
    N     -2.10105890     -2.69572284      3.99265938
    C      0.58328175     -0.15644789      3.64002192
    H     -0.36130764      0.32375488      3.49150804
    H      0.62132417     -0.57157681      4.62547605
    H      0.70344814     -0.93781298      2.91896177
    C      1.71508394      0.87447785      3.47324089
    N      2.55776212      1.64204893      3.34906483
    C      3.45600017     -1.10779008      0.79119525
    H      4.35904495     -1.33212014      0.26290903
    H      3.64377685     -0.33405872      1.50602306
    H      2.70954551     -0.77973680      0.09831317
    C      2.96036853     -2.37067099      1.51994835
    N      2.59134824     -3.31094323      2.06253816
    C     -2.43260014     -1.19845012     -2.42371143
    H     -3.21971556     -1.02198067     -3.12671074
    H     -1.48933052     -0.99430436     -2.88573526
    H     -2.56084279     -0.55771106     -1.57641788
    C     -2.47277197     -2.66843941     -1.96641752
    N     -2.50268172     -3.76291325     -1.62594142
    C     -3.35572222      0.23746028      2.12340046
    H     -3.53586543      0.97694900      2.87546764
    H     -2.30163120      0.12940645      1.97468740
    H     -3.76946159     -0.69820035      2.43686183
    C     -4.01807954      0.67531868      0.80386919
    N     -4.51123468      1.00132417     -0.17858183
    C     -1.67418908      2.58598441     -2.06955665
    H     -2.33327160      2.00632093     -1.45759204
    H     -1.92719412      3.62213244     -1.98420558
    H     -0.66489131      2.43752687     -1.74679132
    C     -1.81409938      2.14265498     -3.53771336
    N     -1.91826895      1.81257607     -4.63082277
   Cl     -0.08412519      0.07660684      0.09334176
