61
Energy:   -384.71592135
    C     -0.38759556     -0.60896379     -3.55221100
    H     -0.15754013     -0.14092534     -4.48651004
    H     -0.25203548      0.09487471     -2.75777163
    H     -1.40358742     -0.94446958     -3.56198295
    C      0.54846187     -1.81271517     -3.33685296
    N      1.24539918     -2.70896280     -3.17650911
    C     -3.25443218     -0.42227643      1.58636959
    H     -4.20335465      0.06393249      1.67607581
    H     -3.06603288     -0.64975406      0.55794423
    H     -2.48597723      0.22453860      1.95516006
    C     -3.26584803     -1.72558851      2.40664228
    N     -3.27434764     -2.69596359      3.01737259
    C      2.63673994     -2.84215770      0.12575796
    H      2.72830359     -3.03795001     -0.92218366
    H      1.75201949     -2.26776362      0.30531372
    H      2.57458826     -3.76854681      0.65758450
    C      3.86774694     -2.05375200      0.61015266
    N      4.78428760     -1.46674813      0.97080653
    C     -0.73039685      2.92581983      2.18860087
    H      0.07874738      2.99068146      1.49147909
    H     -0.73730208      1.95464009      2.63766804
    H     -0.60712454      3.66917597      2.94828809
    C     -2.06244365      3.16036366      1.45223104
    N     -3.05421303      3.33499220      0.90397023
    C      3.10128127      0.55983045     -1.72485655
    H      4.14707131      0.33731077     -1.68352424
    H      2.53933071     -0.33224582     -1.54234464
    H      2.86238848      1.29041208     -0.98049117
    C      2.74874049      1.11252498     -3.11835709
    N      2.48625786      1.52403118     -4.15588159
    C      0.13027132     -1.65483240      3.65904322
    H      0.00868833     -0.98929121      2.83008443
    H      0.90475844     -1.28843321      4.29999598
    H     -0.78727178     -1.71424768      4.20629414
    C      0.51115431     -3.05454402      3.14199824
    N      0.79473900     -4.09669295      2.75703474
    C      2.89445418      1.31137797      2.05086516
    H      3.95802105      1.32407716      2.16733151
    H      2.59167787      2.14222591      1.44843898
    H      2.59856901      0.39956528      1.57552456
    C      2.22533675      1.40962951      3.43442163
    N      1.72714841      1.48278224      4.46454231
    C     -3.36331760      1.03437030     -1.81818509
    H     -2.44257041      0.71978735     -1.37303078
    H     -3.97403193      0.17858401     -2.01707434
    H     -3.87730931      1.69137579     -1.14806912
    C     -3.06976882      1.77323165     -3.13709108
    N     -2.85120840      2.32334751     -4.11907654
    C     -1.12357072     -3.38793159     -0.25234538
    H     -0.24384925     -3.52045801     -0.84684270
    H     -1.40674798     -4.32507845      0.17947112
    H     -0.92460107     -2.68188798      0.52663639
    C     -2.26851805     -2.86457573     -1.13935961
    N     -3.12098338     -2.47491350     -1.79978203
    C     -0.09184116      3.23096729     -1.89803970
    H     -0.70236140      2.60648990     -1.27982194
    H      0.24626963      2.67236577     -2.74570975
    H     -0.66358143      4.07219324     -2.23023099
    C      1.12310557      3.72298089     -1.08969134
    N      2.02768863      4.08930739     -0.48783925
   Cl      0.01051718      0.10388245      0.14856656
