61
Energy:   -385.42938744
    C     -0.21277438      3.98495294      0.20512715
    H     -0.35191564      4.53191486     -0.70392320
    H     -0.75594904      4.46105734      0.99454781
    H     -0.57138476      2.98487210      0.07809954
    C      1.28538402      3.95187095      0.56012993
    N      2.40083106      3.92723990      0.82444563
    C      2.43597229      2.02636257     -2.22816956
    H      3.42249801      2.07999761     -1.81732838
    H      1.79221132      1.51369005     -1.54432909
    H      2.06442842      3.01596799     -2.39410736
    C      2.47739279      1.26273999     -3.56486882
    N      2.50823224      0.69418827     -4.56010217
    C      1.48212567     -2.12737381     -2.71294184
    H      1.32878266     -1.33436882     -2.01113760
    H      2.39352385     -1.95914306     -3.24768557
    H      1.54187215     -3.05931633     -2.19062719
    C      0.30510055     -2.16953424     -3.70512849
    N     -0.57124816     -2.20092459     -4.44385656
    C      0.29611502      1.14936768      3.39723413
    H     -0.10320896      1.84236138      2.68645971
    H      0.81978308      0.37163253      2.88167726
    H      0.97052696      1.65962155      4.05275575
    C     -0.85349863      0.53694677      4.21877481
    N     -1.70943825      0.08097158      4.83044920
    C     -1.67801444     -2.57478361      2.54877429
    H     -1.25999081     -3.49716390      2.20327316
    H     -1.59423613     -2.52214446      3.61418942
    H     -1.14825454     -1.75601671      2.10846270
    C     -3.16269502     -2.50141869      2.14635512
    N     -4.26810719     -2.44679517      1.84673576
    C      1.65703766     -3.09916759      0.91605580
    H      0.95601617     -2.47662088      0.40039636
    H      1.24659154     -4.08084071      1.02897591
    H      2.56558555     -3.15497673      0.35362789
    C      1.94909087     -2.50196950      2.30517759
    N      2.16653776     -2.05732837      3.33944191
    C      3.34459735      0.67240287      1.16484247
    H      3.38202015      0.21344688      2.13068878
    H      2.33725822      0.95808493      0.94449561
    H      3.97103042      1.53982934      1.15762969
    C      3.83895737     -0.32665965      0.10225964
    N      4.20703087     -1.07050711     -0.68888157
    C     -2.66468018     -2.24298895     -1.42871657
    H     -3.64131522     -2.61307159     -1.66136012
    H     -2.25349085     -1.75645254     -2.28842858
    H     -2.73108105     -1.54422482     -0.62111598
    C     -1.75529184     -3.41629542     -1.01888153
    N     -1.07821088     -4.28987542     -0.71374072
    C     -3.37702175      1.08278706      1.54090454
    H     -3.29123080      1.11988895      0.47499481
    H     -4.37540764      0.80662660      1.80897188
    H     -2.69052571      0.35960848      1.92902183
    C     -3.05160775      2.46769173      2.13060343
    N     -2.80932224      3.49881621      2.56966106
    C     -1.28002683      1.13560896     -3.31401344
    H     -2.04179537      0.97228079     -2.58057443
    H     -0.41787716      0.55115218     -3.06904952
    H     -1.64478161      0.84667755     -4.27753390
    C     -0.89952571      2.62770818     -3.33543312
    N     -0.61622533      3.73864388     -3.35138104
   Cl     -0.28640014      0.11295204     -0.02192421
