61
Energy:   -384.84652284
    C      1.27130633      3.80717285     -1.01061002
    H      1.67146550      3.97020208     -1.98948402
    H      0.39950450      4.41282156     -0.87625863
    H      1.00956274      2.77564371     -0.89953786
    C      2.32683620      4.18548277      0.04501222
    N      3.11272616      4.46715170      0.83097096
    C      1.85559818     -0.92157059     -3.11115342
    H      1.16830654     -1.05751431     -2.30242003
    H      2.77424202     -1.42208510     -2.88648075
    H      1.43702390     -1.32963100     -4.00735728
    C      2.12505849      0.58175810     -3.30862237
    N      2.32568394      1.70105464     -3.45564698
    C      2.26734741     -3.16466554      0.33331512
    H      2.24320235     -3.77840174      1.20946868
    H      1.93316855     -2.17842224      0.57937964
    H      3.26811576     -3.11875110     -0.04252216
    C      1.34270604     -3.76688081     -0.74091721
    N      0.65426851     -4.21525746     -1.54073201
    C     -0.16690341      3.02779775      2.29232446
    H      0.05193407      4.07482792      2.31949358
    H     -0.81270000      2.81975182      1.46494138
    H      0.74315389      2.47595914      2.18201150
    C     -0.86220491      2.61452196      3.60280488
    N     -1.37988848      2.30681935      4.57851712
    C     -1.83815012     -3.20689231      0.95124255
    H     -1.28495371     -2.36380324      0.59336724
    H     -2.44702131     -3.59519207      0.16168681
    H     -1.15907137     -3.96416485      1.28334109
    C     -2.73538743     -2.77154180      2.12471396
    N     -3.40342138     -2.44740355      2.99841676
    C      3.71740530      0.89962967      0.12447778
    H      4.43420788      1.64801645      0.39095754
    H      3.21407674      0.55829832      1.00484836
    H      3.00379034      1.31541328     -0.55579921
    C      4.43723563     -0.28464554     -0.54704027
    N      4.97318204     -1.16639227     -1.04701598
    C      0.05782542     -0.84204450      3.68223760
    H     -0.03009446     -0.56226525      4.71126328
    H     -0.88020955     -0.69094701      3.19014103
    H      0.80807974     -0.24121279      3.21211123
    C      0.45462880     -2.32693608      3.58609143
    N      0.75006696     -3.43250535      3.51450623
    C     -1.86520205     -2.07903585     -2.53654044
    H     -1.28632864     -1.60519211     -1.77150588
    H     -1.59883418     -3.11363539     -2.59613108
    H     -2.90558891     -1.99151085     -2.30237457
    C     -1.58433780     -1.39793604     -3.88887853
    N     -1.37522159     -0.89082627     -4.89575571
    C     -3.30167653      0.79514825      1.57318851
    H     -3.42251567      1.85128997      1.45127563
    H     -2.26115160      0.56353408      1.66571868
    H     -3.81776185      0.47650476      2.45467665
    C     -3.88256054      0.06705207      0.34679146
    N     -4.31505509     -0.47504864     -0.56631689
    C     -1.77451717      1.75802392     -2.28941034
    H     -2.06574992      0.82213975     -1.86021983
    H     -0.71632111      1.76387428     -2.44779581
    H     -2.27594031      1.89278656     -3.22499195
    C     -2.15669721      2.90262195     -1.33262731
    N     -2.44124762      3.75482721     -0.62025885
   Cl      0.21500401      0.11218574      0.19511202
