61
Energy:   -384.92465858
    C      1.23781656      2.32645124      2.78259430
    H      1.70994743      1.39100731      2.56594419
    H      0.22319192      2.30079182      2.44380599
    H      1.25705999      2.49962931      3.83831119
    C      1.99090725      3.46047668      2.06256602
    N      2.55161749      4.30481016      1.52647223
    C      2.97762147     -2.30101074     -0.91974703
    H      3.70342073     -2.13977994     -0.15025353
    H      2.92048344     -3.34592752     -1.14286864
    H      2.02162776     -1.95465160     -0.58656471
    C      3.39116620     -1.52766037     -2.18564986
    N      3.69906905     -0.95186588     -3.12817206
    C      0.57385366      0.80213259     -3.40252150
    H     -0.11558387      1.49934642     -2.97418876
    H      1.11396036      1.27595640     -4.19541168
    H      1.26021485      0.47180880     -2.65106051
    C     -0.19906995     -0.40786905     -3.95937435
    N     -0.77454672     -1.30877027     -4.37397662
    C     -2.29579660     -2.52110609      1.70445160
    H     -1.77370555     -1.91344533      0.99517766
    H     -3.34615469     -2.48001976      1.50455440
    H     -1.95693518     -3.53292297      1.62508766
    C     -2.02319360     -1.99855608      3.12720565
    N     -1.82022828     -1.60949385      4.18651071
    C     -2.73478746      1.49493656      1.88418299
    H     -2.29249767      1.75362193      0.94484184
    H     -2.03327842      0.93489443      2.46653767
    H     -3.00283157      2.38742270      2.41003462
    C     -3.99522185      0.64415063      1.64114297
    N     -4.93367254      0.01070183      1.46018863
    C      1.66315757     -1.68808064      2.78791272
    H      2.31590775     -1.14140497      2.13986714
    H      2.15160030     -1.85924840      3.72440852
    H      0.76797456     -1.12487755      2.95023571
    C      1.30908657     -3.03912518      2.13913512
    N      1.04546462     -4.04503925      1.65609070
    C      3.43896829      1.84792918     -0.73683247
    H      3.79488117      2.84955094     -0.61443936
    H      2.37134670      1.83765679     -0.66627958
    H      3.73660966      1.47833690     -1.69584772
    C      4.03491681      0.95306219      0.36573654
    N      4.47862757      0.28679304      1.18664929
    C     -0.50288685     -3.31849419     -1.64206590
    H      0.07450561     -3.84741203     -0.91284436
    H     -0.44312372     -2.26749477     -1.45042121
    H     -0.11911470     -3.52524794     -2.61924086
    C     -1.97226220     -3.77233133     -1.56102327
    N     -3.06627895     -4.11023371     -1.50068334
    C     -0.41758743      3.81445790     -0.75648253
    H     -0.81289267      4.35427959     -1.59148342
    H     -0.65953059      2.77690079     -0.85566841
    H      0.64557910      3.93154924     -0.72706066
    C     -1.03059224      4.36230182      0.54570492
    N     -1.48700218      4.77019652      1.51524267
    C     -3.19382376     -0.36875128     -1.72455776
    H     -2.47662131     -0.58813587     -0.96141215
    H     -3.04688742     -1.03002216     -2.55282681
    H     -4.18140902     -0.49997507     -1.33423126
    C     -3.01615284      1.08760105     -2.19260789
    N     -2.88386875      2.17192156     -2.54109249
   Cl      0.14695415      0.13827748      0.12629705
