61
Energy:   -385.01492121
    C      2.46904545      2.43331962     -1.45589446
    H      3.44036922      2.13989465     -1.11628864
    H      2.54834886      2.86919444     -2.42986735
    H      1.83222998      1.57459896     -1.50021119
    C      1.87346489      3.46421599     -0.47909536
    N      1.43002810      4.23176520      0.24817596
    C      3.15710093     -1.32702387     -1.09415955
    H      3.00179495     -0.50051615     -0.43259684
    H      3.87986821     -1.99237434     -0.67011321
    H      2.23344333     -1.84791004     -1.23710480
    C      3.66975823     -0.80928224     -2.45089316
    N      4.05145489     -0.42380006     -3.46104300
    C      0.29565668     -0.78956423     -3.63942604
    H      0.58512683     -0.30231897     -4.54700483
    H      0.77136733     -1.74620413     -3.58078660
    H      0.59265559     -0.19168721     -2.80322403
    C     -1.23309082     -0.97448317     -3.62109376
    N     -2.37131282     -1.11216373     -3.60744454
    C     -1.60164512     -1.17042410      3.41111042
    H     -1.49091919     -0.51224314      2.57478645
    H     -2.39732649     -0.82227738      4.03607770
    H     -1.82775257     -2.15617318      3.06172058
    C     -0.29039329     -1.20004196      4.21816766
    N      0.68589331     -1.22209380      4.81905847
    C     -3.69174411     -0.07843060     -0.12716284
    H     -4.53514800     -0.73592415     -0.09149367
    H     -3.14645652     -0.14766076      0.79086097
    H     -3.05615317     -0.35747599     -0.94144591
    C     -4.17745617      1.36912762     -0.32780927
    N     -4.53909088      2.44690051     -0.47719965
    C      1.74184264     -3.01435507      1.83049448
    H      1.42181455     -2.02808091      1.56640077
    H      2.28529389     -3.44339839      1.01472388
    H      2.37303546     -2.96550749      2.69311180
    C      0.51183233     -3.88665646      2.14316828
    N     -0.40396626     -4.53612449      2.37596813
    C      2.01037871      1.32488642      2.67427679
    H      1.44728526      0.42157226      2.56542147
    H      1.46376152      2.13957511      2.24720412
    H      2.18121883      1.51567885      3.71317573
    C      3.36165284      1.17784208      1.95037335
    N      4.36773785      1.06836089      1.41139433
    C     -1.60378962     -3.32819976     -0.70287571
    H     -2.20160884     -2.86012548     -1.45681126
    H     -1.43934752     -2.64028136      0.10001043
    H     -2.11104578     -4.19433434     -0.33219906
    C     -0.24997843     -3.74537952     -1.30682630
    N      0.75799553     -4.05598880     -1.75649497
    C     -1.57195109      3.16899926      1.62241424
    H     -1.10309754      3.99244436      2.11941997
    H     -2.16695698      3.53383355      0.81138833
    H     -0.82159117      2.50644137      1.24442465
    C     -2.47034497      2.41235195      2.61839279
    N     -3.13924005      1.84899363      3.35994410
    C     -1.43391897      2.52110263     -2.18735667
    H     -2.26204088      3.19519142     -2.25604866
    H     -0.88433262      2.72142475     -1.29140746
    H     -1.79460581      1.51393607     -2.16687196
    C     -0.51391490      2.71217186     -3.40747350
    N      0.17106994      2.85443159     -4.31590594
   Cl     -0.08230551     -0.03974978      0.04996435
