61
Energy:   -386.00488008
    C      2.31010478      1.46205760     -2.49277797
    H      2.29125699      1.78117492     -1.47164670
    H      3.31841807      1.47106904     -2.85071957
    H      1.91526930      0.47011046     -2.56380546
    C      1.45428054      2.41746152     -3.34505035
    N      0.81708050      3.12880316     -3.97960589
    C     -1.33198899      0.07714942     -3.47390208
    H     -1.90848339      0.73772017     -4.08725407
    H     -0.51828317     -0.31989486     -4.04411062
    H     -0.94863137      0.61538952     -2.63233591
    C     -2.22514609     -1.07679717     -2.98168497
    N     -2.89014215     -1.93596285     -2.61520696
    C      0.52537878     -3.13861176     -1.68605520
    H      0.49013095     -2.44347703     -0.87337723
    H      1.02916982     -4.02891258     -1.37227479
    H     -0.47103352     -3.38135222     -1.99124151
    C      1.28511704     -2.50835258     -2.86807514
    N      1.85077671     -2.03909598     -3.74814272
    C     -1.40209533      1.38250870      3.16596708
    H     -2.32494686      1.63162319      3.64678639
    H     -1.46219076      0.38979807      2.77123523
    H     -1.21735609      2.07253015      2.36932356
    C     -0.25327086      1.45961634      4.18863845
    N      0.60208118      1.51702648      4.95006378
    C      0.98074345     -1.82936979      3.17542201
    H      1.87815907     -1.77346123      3.75543892
    H      0.13808585     -1.91397659      3.82938604
    H      0.88405329     -0.94443653      2.58175271
    C      1.04109447     -3.06171035      2.25385025
    N      1.08602855     -3.97924391      1.56769818
    C      2.67243107      1.84150782      2.09986804
    H      2.96237738      2.36617733      2.98618244
    H      2.52683227      0.80663663      2.32952363
    H      1.76036313      2.25494912      1.72290988
    C      3.77737655      1.98077069      1.03624153
    N      4.60005868      2.08445822      0.24432326
    C      3.62044087     -1.39647754     -0.27861168
    H      2.58682379     -1.12209928     -0.31400195
    H      3.75872806     -2.33119662     -0.78068339
    H      4.20637762     -0.64232361     -0.76113533
    C      4.06573653     -1.53149855      1.18940777
    N      4.39727939     -1.63202783      2.28241498
    C     -2.24143846     -2.77822682      0.65919295
    H     -1.60782642     -3.64022620      0.67901832
    H     -1.74466132     -1.98216596      0.14499583
    H     -3.15260345     -3.01692211      0.15154937
    C     -2.55695795     -2.33978108      2.10134855
    N     -2.79187656     -2.01333830      3.17509895
    C     -3.84714139      0.52725911     -0.05117200
    H     -4.33122795     -0.26258031      0.48428489
    H     -2.81428210      0.28406514     -0.18885819
    H     -4.31494288      0.65010031     -1.00561995
    C     -3.96367963      1.83725778      0.75002855
    N     -4.05044765      2.81261134      1.34655877
    C     -1.35323415      3.60624648     -1.24213405
    H     -1.70525369      3.82150626     -0.25489261
    H     -0.90917221      4.48460885     -1.66188116
    H     -0.62427611      2.82420162     -1.19825811
    C     -2.53486317      3.15780732     -2.12205176
    N     -3.41463968      2.82392397     -2.77719049
   Cl      0.08003871      0.28539294      0.07524749
