61
Energy:   -384.81625692
    C     -0.92583993      2.97970588      1.58803164
    H     -1.53365518      2.13840149      1.32790142
    H     -1.27794421      3.40420469      2.50494081
    H      0.08909339      2.66290632      1.70822931
    C     -1.00501882      4.03555078      0.46976411
    N     -1.06397109      4.82167529     -0.36283690
    C      0.81910504      0.14362577     -3.84177133
    H      0.02573426     -0.48365798     -4.19102497
    H      0.80334586      0.17655071     -2.77239455
    H      1.75729085     -0.25032736     -4.17269036
    C      0.63336074      1.56605868     -4.40193530
    N      0.49506566      2.62512463     -4.81900284
    C      1.05856407     -2.99165784     -1.86795986
    H      1.68052688     -2.59049900     -1.09521539
    H      0.39063958     -2.23266449     -2.21825268
    H      1.66998104     -3.33032803     -2.67812706
    C      0.24472968     -4.17397995     -1.30993834
    N     -0.36120701     -5.05427250     -0.89446595
    C      1.87028365      2.95107665     -1.38773770
    H      1.55771367      3.89144769     -1.79134951
    H      1.02087658      2.30949689     -1.27919217
    H      2.57824400      2.49674351     -2.04900364
    C      2.52372946      3.17494104     -0.01133177
    N      3.01024957      3.34161825      1.01346502
    C      0.03167693     -2.95833646      2.36763952
    H      0.64186230     -3.56684387      3.00190502
    H      0.11818003     -1.93420910      2.66526255
    H      0.35565397     -3.06356775      1.35331002
    C     -1.43732104     -3.40506488      2.48629310
    N     -2.53105681     -3.73767449      2.57463609
    C      1.70604061      0.74618184      3.44782394
    H      2.26986573      1.48799542      2.92178780
    H      1.44586099      1.11690792      4.41724017
    H      0.81433966      0.52152321      2.90074350
    C      2.55240238     -0.53170541      3.59707519
    N      3.18255719     -1.48315056      3.70819953
    C      3.70855811     -0.43435549      0.26457999
    H      3.25874155      0.45599378      0.65167612
    H      4.67856376     -0.56136860      0.69800335
    H      3.09633558     -1.27772624      0.50708451
    C      3.84101773     -0.31916531     -1.26538265
    N      3.93963993     -0.23340098     -2.40450937
    C     -2.82759582     -2.21353032     -0.77822878
    H     -3.54360972     -1.52222318     -0.38539457
    H     -1.92288663     -2.15124847     -0.21031916
    H     -3.21989925     -3.20709074     -0.71630298
    C     -2.53455180     -1.86815025     -2.25011118
    N     -2.31636720     -1.61099908     -3.34599453
    C     -2.99232207     -0.19985978      2.45806952
    H     -3.71040114      0.56304705      2.24073159
    H     -3.49999586     -1.11776237      2.66930697
    H     -2.34841259     -0.33443449      1.61416827
    C     -2.15490104      0.21690594      3.68143878
    N     -1.53140302      0.52720697      4.59229281
    C     -2.17264231      1.86098279     -2.19448053
    H     -2.37911295      1.30974806     -3.08801863
    H     -1.22808653      1.55409902     -1.79631497
    H     -2.14210405      2.90660986     -2.41949285
    C     -3.27888740      1.59111016     -1.15766302
    N     -4.10253716      1.39017772     -0.38570525
   Cl      0.17190020     -0.12836301      0.11054814
