61
Energy:  -1422.69302397
O   -1.32519157   1.62308239  -2.25501858
H   -0.66600760   2.26247596  -1.98504781
H   -0.94168378   1.19057171  -3.01796559
O    3.19248771   1.44210090   1.52952033
H    3.96595907   1.89618684   1.86385528
H    3.14797387   1.69164502   0.60649373
O    0.36329662   3.43211596  -1.10051873
H    0.36603336   4.35402540  -1.35802087
H   -0.15596957   3.40899004  -0.29674036
O    1.49993880  -2.85125154   2.77625392
H    2.07254220  -2.35402385   2.19219756
H    2.00562719  -3.63249610   3.00023611
O   -1.22502509   2.95648759   1.10392657
H   -0.62863031   2.37245393   1.57238126
H   -1.51653899   3.58323778   1.76607133
O   -0.75229906  -0.28631549  -4.17454037
H    0.16388174  -0.56343051  -4.18174088
H   -1.01006010  -0.28560182  -5.09638124
O    3.18929761   1.51325519  -3.75732764
H    3.78746732   1.72825670  -4.47300858
H    2.79774422   0.67848821  -4.01439162
O   -3.92805997  -0.62571093   1.54569435
H   -3.40959415  -0.90373264   2.30076320
H   -4.82940296  -0.60678088   1.86733753
O    0.51248812   1.11576255   2.11253535
H    0.45414048   0.52051274   2.85986732
H    1.45065099   1.26929926   2.00069286
O    2.93409791  -1.29150657   1.12860536
H    2.67288741  -1.23886976   0.20924129
H    3.18521009  -0.39685893   1.35834461
O   -2.93767872   1.23528308  -0.21828020
H   -3.30636323   0.63337097   0.42825317
H   -2.43612725   1.86539841   0.29905204
O    1.88398480  -0.67575277  -1.33351492
H    2.20273976   0.22503300  -1.27683940
H    1.01789741  -0.64988597  -0.92675283
O    0.27623663  -0.78742462   4.10219268
H    0.67962961  -0.65660725   4.96032599
H    0.75535233  -1.52345297   3.72147984
O    1.90290276  -0.93836346  -4.02127698
H    2.32901324  -1.74863818  -4.30077040
H    1.93290115  -0.96892694  -3.06503547
O   -2.28158154  -1.64327350   3.52364703
H   -1.46107094  -1.26158803   3.83559318
H   -2.59100762  -2.17768029   4.25501338
O   -0.90182784  -2.72184120   1.39604938
H   -1.43170171  -2.46625302   2.15112568
H   -0.05251567  -2.95932179   1.76821018
O   -0.43480657  -0.39793762   0.02489034
H   -0.62968430  -1.24547637   0.42480606
H   -0.08512319   0.13103467   0.74192709
O   -2.69887749  -0.57506254  -2.10848769
H   -2.84284576  -1.36659156  -1.58984832
H   -2.15739463  -0.86449969  -2.84282705
O    2.66656244   1.92686651  -1.11488864
H    2.98271150   1.91715098  -2.01831945
H    1.90884386   2.51150266  -1.13206351
O   -3.09451200  -2.52581406  -0.31893564
H   -3.54694616  -1.99500459   0.33663776
H   -2.34210460  -2.89164185   0.14612885
H   -2.30928825   0.71532585  -1.46378046
