61
Energy:  -1423.25558198
O   -1.53254853   1.32430972  -2.14093786
H   -1.05083864   2.13734211  -1.98873481
H   -1.22488711   1.01926861  -2.99447533
O    3.12491443   1.43366382   1.27806160
H    3.92615259   1.94177820   1.40482529
H    2.87496998   1.60234527   0.36959796
O   -0.16080488   3.58392243  -1.44868840
H   -0.13498497   4.45120414  -1.85290073
H   -0.55126400   3.73209719  -0.58739998
O    2.68477606  -0.61630632   3.13742819
H    2.62297537  -1.47972406   2.72886689
H    2.97598170  -0.03764501   2.43274229
O   -1.35533091   3.57139497   1.01516567
H   -0.68022960   3.07080705   1.47329426
H   -1.62121061   4.24477928   1.64133929
O   -0.56174642   0.20301213  -4.44778006
H   -0.75333683  -0.67798999  -4.12628321
H   -0.98872362   0.24434835  -5.30347489
O    2.02813872   0.59239602  -3.53992644
H    2.67517726   0.66705893  -4.24135243
H    1.18629196   0.55006476  -3.99350546
O   -3.98591411  -0.02292756   2.09192483
H   -3.74889804  -0.92490883   1.87632097
H   -4.76385811  -0.10454591   2.64362531
O    0.51317331   1.88600656   2.00542248
H    1.45942128   1.84826768   1.86605825
H    0.36108366   1.33206120   2.77108894
O    2.85423222  -3.19906075  -0.46582150
H    3.61516157  -3.39729920  -1.01164187
H    2.35779574  -2.55511879  -0.97091696
O   -2.81611746   1.41230363   0.13976649
H   -3.27270287   1.00357942   0.87509371
H   -2.41881876   2.19971892   0.51173794
O    1.28429997  -1.35006110  -1.73315649
H    1.67475637  -0.69615065  -2.31296403
H    0.88843113  -0.83902911  -1.02720605
O    0.21704259  -0.01769776   3.96740776
H    0.15015597   0.06287071   4.91886283
H    1.13516030  -0.23732057   3.80911202
O   -0.99637191  -2.08341659  -2.98320623
H   -0.16344681  -1.94942547  -2.53097398
H   -0.99395027  -3.01063072  -3.22090342
O    2.03086659  -3.10144059   2.10163108
H    2.35012966  -3.18747023   1.20335392
H    2.38402358  -3.86625824   2.55612636
O   -0.48855800  -1.99183196   2.16747460
H   -0.38326553  -1.37496765   2.89178377
H    0.32877932  -2.48988047   2.15567457
O   -0.15300676  -0.10630321   0.23128954
H   -0.27320894  -0.80562122   0.87373612
H    0.14197822   0.64465013   0.74634759
O   -2.67594556  -0.84466763  -1.19361374
H   -2.82829680  -1.43147495  -0.45288565
H   -2.17605824  -1.37080797  -1.81772981
O    2.13509614   2.04480754  -1.17992869
H    2.18734770   1.61063499  -2.03139555
H    1.40007228   2.65205816  -1.26489023
O   -2.95972404  -2.38116819   1.08300990
H   -2.10827290  -2.35547694   1.51959068
H   -3.27060114  -3.27668225   1.21583246
H   -2.29124836   0.60074611  -1.00122403
