61
Energy:  -1424.91599199
O   -1.33009682   1.55991226  -2.12987391
H   -0.89128541   2.32374089  -1.75538463
H   -0.79962444   1.32816637  -2.89218929
O    3.11728402   1.43021282   1.83465836
H    3.89168286   1.89537957   2.15113612
H    2.94137389   1.81376782   0.97548839
O   -0.10174776   3.62407218  -0.81954212
H   -0.12614360   4.55878560  -1.02435307
H   -0.48946442   3.55943056   0.05322881
O    1.07899013  -2.95849020   2.10977770
H    1.46333493  -3.82745297   2.22559923
H    1.80740097  -2.41102835   1.81663093
O   -1.30626624   3.05749091   1.57946932
H   -0.68533742   2.48865810   2.03456105
H   -1.68305333   3.60263357   2.27018113
O    0.23716578   0.78049202  -4.23768120
H    0.26300208   1.28911225  -5.04815625
H    1.11239030   0.88089615  -3.86333792
O    2.64472243   1.06120348  -2.97257431
H    3.53918898   1.00811918  -3.30923956
H    2.55751068   0.29791047  -2.40160169
O   -4.15364795  -0.23000085   1.78415384
H   -3.65393316  -0.80041191   2.36823277
H   -5.06659473  -0.36939496   2.03580701
O    0.48018433   1.23478157   2.54673429
H    0.37691508   0.46679444   3.10866229
H    1.42726469   1.34225391   2.45886877
O    3.01273244  -1.28783330   1.29259268
H    2.88335591  -1.24236425   0.34526690
H    3.17854749  -0.38261786   1.55588380
O   -2.72950218   1.25992723   0.05961527
H   -3.30201576   0.75932779   0.64087275
H   -2.31703854   1.90893135   0.62961461
O    2.12534522  -0.92954391  -1.25801561
H    1.39585436  -0.52383305  -0.78953548
H    1.75456161  -1.72765019  -1.63454945
O    0.07338695  -1.15055757   3.90454231
H    0.50372493  -1.25786424   4.75279130
H    0.48041029  -1.81087915   3.34370431
O   -1.05397173  -1.62103505  -3.81126536
H   -1.51910043  -1.89708997  -4.60100002
H   -0.56128168  -0.84612014  -4.08144168
O   -2.48656430  -1.90841045   3.19572437
H   -1.66490567  -1.58417417   3.56447873
H   -2.76241305  -2.60085754   3.79627107
O   -1.26353637  -2.23323228   0.73190264
H   -1.81112158  -2.19561700   1.51610120
H   -0.47672845  -2.70158737   1.01084466
O    0.01589249   0.07022831   0.13055417
H   -0.38956498  -0.75239638   0.40464305
H    0.23824413   0.51279684   0.94965409
O    0.82829356  -3.03576962  -2.36498111
H    0.15084881  -2.66491117  -2.93045832
H    0.95936791  -3.92354482  -2.69800747
O    2.40079902   2.45946970  -0.57594383
H    1.56405401   2.91607528  -0.66312735
H    2.55663466   2.07706495  -1.43949100
O   -2.26428777  -0.81494277  -1.48268185
H   -2.06443120  -1.47839006  -0.82228281
H   -1.91865340  -1.17680844  -2.29866100
H   -2.05259487   0.65000323  -1.13840605
