61
Energy:  -1425.11356028
O   -1.14663861   1.57391694  -2.30774708
H   -1.02258841   2.48833043  -2.05340210
H   -0.41859440   1.38895243  -2.90101903
O    3.01097006   1.67364972   0.41530446
H    3.84809727   2.08399001   0.63226237
H    2.67235021   2.19098728  -0.31540089
O   -0.60294213   4.07567637  -1.32538008
H   -0.90100687   4.96041088  -1.53664793
H   -0.84159902   3.95510280  -0.40628446
O    1.52423558  -2.84110653   2.98862463
H    2.21629732  -2.74643266   2.33416359
H    1.75882632  -3.63254970   3.47320358
O   -1.31623235   3.23328797   1.18532401
H   -0.60326911   2.68219106   1.50813581
H   -1.65222213   3.67295458   1.96637201
O    2.10763879  -1.13952355  -3.46447408
H    2.86777979  -1.59776589  -3.82284744
H    2.30344298  -1.04221928  -2.53258114
O    1.14462581   1.39448152  -3.83001060
H    1.23141778   1.65714589  -4.74636557
H    1.53459507   0.52111668  -3.79273232
O   -3.65785124  -0.43387934   1.57101142
H   -3.65524233  -1.26785185   1.10120838
H   -3.15094273  -0.60408496   2.36492933
O    0.64533130   1.43470343   1.82410925
H    0.76924847   0.87909226   2.59363678
H    1.52724024   1.55912191   1.47341208
O    3.37201040  -2.50597818   1.05720922
H    4.22077271  -2.83479803   0.76104728
H    3.08772005  -1.91397628   0.36082958
O   -2.67753527   1.29632598  -0.21038582
H   -3.11393506   0.73938794   0.43429014
H   -2.30130312   2.01009835   0.30459982
O    2.43215912  -0.73695217  -0.79456618
H    2.78781520   0.07777794  -0.43966415
H    1.49942443  -0.70432007  -0.58202680
O    0.74559841  -0.37018401   3.92438088
H    1.23302112  -0.17138330   4.72383646
H    1.08922183  -1.21642508   3.63797060
O   -0.59701927  -1.73488355  -3.59531742
H   -0.74957943  -2.27549484  -4.37036366
H    0.35282178  -1.62011798  -3.56594590
O   -1.92510526  -1.08712123   3.65545004
H   -1.06398992  -0.72720762   3.86799276
H   -2.31510245  -1.29385506   4.50479989
O   -0.85085589  -2.53252413   1.59274939
H   -1.30040283  -2.11592084   2.32799159
H   -0.02192821  -2.83873136   1.96064597
O   -0.13894045  -0.41617157  -0.00964795
H   -0.40025187  -1.17727257   0.50868925
H    0.07354321   0.25463557   0.63927449
O   -2.44201662  -0.67934623  -1.92330446
H   -2.70431073  -1.38637927  -1.33378100
H   -1.83001360  -1.09048035  -2.53375748
O    1.91601953   2.95919724  -1.67022566
H    1.75848452   2.46418818  -2.47420364
H    1.12682313   3.48864802  -1.55584580
O   -3.05811396  -2.60872540  -0.05540385
H   -2.26721829  -2.80743914   0.44582338
H   -3.48482325  -3.45692660  -0.17667111
H   -2.05169511   0.66516474  -1.44649432
