61
Energy:  -1437.33387337
O   -1.02448447   1.67931038  -2.22071431
H   -0.57149858   2.44465714  -1.86676522
H   -0.58018664   1.49936398  -3.04923744
O    2.66779377   1.12984450   2.03411607
H    3.40793474   1.59319011   2.42620539
H    2.64457029   1.43783402   1.12811664
O    0.25209773   3.78028583  -1.02921243
H    0.37913067   4.68638934  -1.31040793
H   -0.30199674   3.84581507  -0.25144828
O    2.38541239  -1.56801433   2.55620821
H    2.51639110  -2.02082271   1.72311698
H    2.57665141  -0.65019647   2.36315417
O   -1.44086325   3.51477096   1.09294591
H   -0.94462744   2.87910816   1.60861505
H   -1.85554334   4.08067663   1.74411642
O    0.35601159   0.93610066  -4.47171999
H    0.10909407   1.15797116  -5.36951566
H    0.07651390   0.02701731  -4.36364434
O    2.73112007   0.97186740  -3.03023883
H    3.50725440   1.11852260  -3.57092322
H    1.99526931   1.07531447  -3.63360788
O   -3.21753398  -0.30569727   1.72166370
H   -2.64183442  -0.39542965   2.48110427
H   -3.18585108  -1.16148590   1.29404954
O   -0.05230292   1.46817754   2.20758637
H   -0.42870333   0.88990253   2.87102634
H    0.89380852   1.39027867   2.33021088
O    2.28494091  -2.97978208   0.15906752
H    2.18701752  -2.39255510  -0.59047056
H    2.93939237  -3.61959720  -0.12122118
O   -2.70195488   1.45756684  -0.21777523
H   -2.97542158   0.88281743   0.49714499
H   -2.39173262   2.25145666   0.21780821
O    1.57188136  -1.17786074  -1.76284571
H    2.11213359  -0.48960697  -2.15100307
H    1.03571225  -0.72404084  -1.11261342
O   -1.37315106  -0.34540430   3.80864601
H   -1.73400241  -0.21210146   4.68514388
H   -0.84928817  -1.14301966   3.88354096
O   -0.43423877  -1.52773848  -3.55284644
H   -0.42397935  -2.39581872  -3.95603782
H    0.30157320  -1.53872488  -2.94072563
O    0.20020614  -2.56909778   3.75389376
H    1.03791029  -2.21643873   3.45370183
H    0.43757801  -3.23503653   4.39919371
O   -0.33461725  -2.83542597   1.06527321
H   -0.23800727  -2.85946289   2.01728192
H    0.52982934  -3.07357882   0.73024015
O   -0.19381973  -0.25685407   0.08616952
H   -0.28563293  -1.10679122   0.51676100
H   -0.10370202   0.36813235   0.80554607
O   -2.39702967  -0.54125785  -1.89050124
H   -2.62720459  -1.23605379  -1.27364635
H   -1.80752223  -0.96173233  -2.51653161
O    2.36310616   2.06220616  -0.49933876
H    2.59478879   1.74611771  -1.37263315
H    1.69170654   2.72648805  -0.65485070
O   -2.83831913  -2.47725803   0.02665721
H   -1.99332982  -2.77350427   0.36498114
H   -3.38792070  -3.26091211   0.03415626
H   -2.02769182   0.81566359  -1.37389356
