61
Energy:  -1429.96792217
O   -1.06022165   1.67272350  -2.22594533
H   -0.68948496   2.47232353  -1.85254749
H   -0.62508442   1.57942879  -3.07340243
O    3.24987654   1.22746630   1.44922386
H    4.05590635   1.60464938   1.80175857
H    3.06163633   1.74959582   0.66936603
O   -0.01474980   3.81764175  -0.90559093
H   -0.13743409   4.75569937  -1.05129034
H   -0.43315475   3.64916770  -0.06132460
O    1.60676251  -2.87804356   2.60256028
H    2.15251538  -2.41621568   1.96608510
H    2.13124991  -3.63485313   2.86406379
O   -1.27135770   2.92779554   1.35885386
H   -0.61347795   2.36644377   1.76911020
H   -1.67278378   3.39978043   2.08845596
O    0.29414411   1.03188317  -4.52676950
H    0.04926589   1.18777994  -5.43888939
H    0.12442795   0.10003300  -4.38862635
O    2.63789179   1.16337406  -3.08334452
H    3.41609827   1.21616430  -3.63817757
H    1.90324688   1.21846949  -3.69448542
O   -3.65782129  -0.59586580   1.52949628
H   -3.18750466  -0.92586031   2.29509261
H   -4.15982986  -1.34729759   1.21394992
O    0.62548042   1.16080204   2.23851787
H    0.58433089   0.53254985   2.95951561
H    1.56050662   1.25873422   2.05860918
O    2.96665439  -1.45002923   0.77843639
H    2.69864530  -1.42731173  -0.14019677
H    3.18004189  -0.54092193   0.98872557
O   -2.70440924   1.20562033  -0.24408662
H   -3.11001182   0.57259294   0.34836145
H   -2.28391157   1.84116638   0.33513249
O    1.75624031  -1.05473324  -1.70244240
H    2.16569472  -0.28999017  -2.10709902
H    1.11830124  -0.68923204  -1.08951952
O    0.48918966  -0.87455895   4.10631705
H    0.96868077  -0.78794949   4.93022173
H    0.93825767  -1.57982017   3.64029520
O   -0.13849475  -1.50733714  -3.59792351
H   -0.04772525  -2.35233549  -4.03834439
H    0.57241958  -1.49311052  -2.95711913
O   -2.08308768  -1.68011444   3.54235318
H   -1.25738683  -1.32112000   3.86727308
H   -2.45993140  -2.13496687   4.29556626
O   -0.82782790  -2.59997292   1.27938869
H   -1.31641557  -2.34101566   2.06070494
H    0.01659499  -2.90237565   1.61365568
O   -0.13738815  -0.25199581   0.03673918
H   -0.40530849  -1.08456580   0.42568357
H    0.15981057   0.27484254   0.77859235
O   -2.24764110  -0.66282063  -2.04965612
H   -2.55905246  -1.41232429  -1.54221246
H   -1.59831145  -1.03156887  -2.64851134
O    2.47108957   2.59111119  -0.73466471
H    2.57552278   2.17447197  -1.59008116
H    1.67140591   3.11071385  -0.81682892
O   -2.88823601  -2.82728290  -0.53076919
H   -2.15766506  -2.86890011   0.08629316
H   -3.18988830  -3.73250869  -0.60695327
H   -1.98115160   0.68469884  -1.43331288
