61
Energy:  -1442.11273237
O   -1.02861060   1.42731648  -2.40182171
H   -0.63279524   2.25352006  -2.12442365
H   -0.36157467   1.01367493  -2.94972278
O    2.47475268   1.93438048   2.29315661
H    3.10699381   2.51830054   2.71213198
H    2.51828838   2.16048379   1.36406362
O    0.07863944   3.70879191  -1.38411488
H    0.14199111   4.58242058  -1.77010888
H   -0.47462492   3.82710204  -0.61201830
O    2.57653737  -0.81871024   2.20251600
H    2.69557467  -0.93502611   1.25989593
H    2.65412297   0.12545389   2.33950657
O   -1.59169050   3.59266526   0.77252257
H   -1.12562852   3.00239196   1.36463363
H   -2.06495890   4.18957242   1.35213513
O    0.84074416   0.08674029  -3.89143773
H    0.51394145  -0.78857776  -3.68347100
H    0.75323161   0.15597995  -4.84211079
O    3.09846999   0.80556413  -2.44930706
H    3.85209645   0.92706777  -3.02681540
H    2.37530735   0.59416713  -3.03971281
O   -3.18390540  -0.18880052   1.71027081
H   -3.33434207  -1.06296612   1.35049984
H   -2.59438846  -0.33217418   2.45063938
O   -0.24455609   1.65244379   2.12573721
H    0.68235472   1.78120493   2.32695544
H   -0.55364555   1.04422984   2.79713228
O    1.18879372  -3.38406875  -1.12217016
H    1.72713704  -2.61299993  -0.94364514
H    1.81046724  -4.11166714  -1.14099732
O   -2.71866586   1.38749091  -0.40044322
H   -2.97200996   0.87490566   0.36721880
H   -2.45386466   2.23614733  -0.04562714
O    2.33075294  -1.01163364  -0.53537758
H    1.49530639  -0.57958205  -0.35763528
H    2.77091203  -0.43520782  -1.16005757
O   -1.23724027  -0.38218250   3.70570781
H   -1.50538640  -0.35755096   4.62425165
H   -0.59745980  -1.09278334   3.66144438
O   -0.36820897  -2.25855260  -3.08664458
H    0.16930838  -2.70881774  -2.43505556
H   -0.66395058  -2.95310206  -3.67517647
O    0.65405037  -2.33773240   3.30793229
H    1.38952090  -1.81769762   2.98408237
H    1.04784927  -2.94833912   3.93108052
O   -0.58991176  -2.70297365   0.88431350
H   -0.15591013  -2.72837757   1.73709077
H    0.03920907  -3.10138792   0.28289443
O   -0.15917403  -0.11599162   0.03637464
H   -0.40042736  -0.95715197   0.42428951
H   -0.16895754   0.49838121   0.77032434
O   -2.33691495  -0.78394774  -1.83230445
H   -2.77190716  -1.37140453  -1.21431727
H   -1.70002271  -1.33852861  -2.28290424
O    2.33820419   2.47647866  -0.35840889
H    2.68484812   1.97133100  -1.09386499
H    1.60162803   2.96355897  -0.72778698
O   -3.20397188  -2.48082021   0.16375275
H   -2.33230169  -2.74022535   0.46230241
H   -3.73885695  -3.26709840   0.27282340
H   -1.97896576   0.65780137  -1.47584755
