61
Energy:  -1424.56514155
O   -1.17335105   1.63888342  -2.09600320
H   -0.81863838   2.42706671  -1.68469081
H   -0.71227683   1.57646343  -2.93251151
O    2.94994740   1.44722259   1.45864103
H    3.74439075   1.72619209   1.91390757
H    2.86651274   2.05732979   0.72581110
O   -0.10469335   3.67995541  -0.76349111
H   -0.49024461   3.57436316   0.10624008
H    0.83160568   3.53198934  -0.63051734
O    1.81360364  -2.81800901   2.23777367
H    2.13897810  -2.23335639   1.55327048
H    2.45533476  -3.52737898   2.27251954
O   -1.43703817   2.86049571   1.51999492
H   -0.83009098   2.29432523   1.99675265
H   -1.83743214   3.40665083   2.19647929
O    0.26683469   1.22092324  -4.38032821
H   -0.08046886   1.43967159  -5.24506011
H    0.12294655   0.27842669  -4.29530874
O    2.65233638   1.73207291  -3.07450524
H    3.33551730   1.84588626  -3.73521864
H    1.83930472   1.67811656  -3.57680005
O   -3.49616760  -0.93014746   1.47419525
H   -3.53173754  -1.69899431   0.90512483
H   -3.09392215  -1.24821138   2.28244384
O    0.39634136   1.04258779   2.45203453
H    0.46476861   0.36575031   3.12541451
H    1.30322505   1.24507606   2.22226877
O    2.37062544  -0.99593186   0.30291241
H    1.44347555  -0.79203553   0.18022904
H    2.74479250  -0.19730233   0.67496314
O   -2.80534278   1.11354517  -0.12326156
H   -3.13916345   0.44854057   0.47887173
H   -2.43994707   1.79089044   0.44587920
O    2.22658168  -0.92830791  -2.44259514
H    2.43281014  -1.05449851  -1.51643230
H    2.50084708  -0.03046151  -2.62936285
O    0.58198968  -1.17699423   4.09181880
H    1.03330439  -1.20044755   4.93561784
H    1.07745698  -1.78016585   3.53780796
O   -0.17416603  -1.37562012  -3.59015817
H   -0.11316625  -2.17064758  -4.11972611
H    0.66706507  -1.32441506  -3.13635191
O   -1.99722466  -2.04394361   3.56168885
H   -1.17784374  -1.68058092   3.89756728
H   -2.43337468  -2.40571510   4.33313321
O   -0.79343454  -2.92728075   1.26906341
H   -1.25279823  -2.74903793   2.08970118
H    0.10669525  -3.11639957   1.53407712
O   -0.25198563  -0.42867289   0.24185325
H   -0.54399425  -1.27758830   0.57397587
H   -0.14547784   0.11160024   1.02479188
O   -2.29521184  -0.71733681  -1.94926624
H   -2.59534446  -1.49663338  -1.48145312
H   -1.59973929  -1.03583782  -2.52468512
O    2.59519935   3.11150891  -0.68425069
H    2.62867717   2.64309865  -1.51833876
H    3.02680467   3.94740825  -0.86094531
O   -2.96392481  -2.90295275  -0.41941182
H   -2.17681355  -3.13250841   0.07454354
H   -3.38563427  -3.74248973  -0.60263477
H   -2.06683949   0.64875862  -1.33031392
