61
Energy:  -1424.57415397
O   -1.21543190   1.65882038  -2.26905744
H   -0.81310103   2.42304793  -1.85636146
H   -0.70934023   1.52451045  -3.07034635
O    2.04042623   0.96264551   0.91684080
H    2.64952928   0.23468115   0.79317508
H    2.33884603   1.63242263   0.30155543
O   -0.12189756   3.71699889  -0.80915915
H   -0.42933720   4.60759589  -0.97812573
H   -0.48930472   3.49452649   0.04626464
O    1.96390822  -2.66138381   2.50798051
H    2.49571873  -2.27293242   1.81334755
H    2.35921613  -3.51952964   2.66143813
O   -1.34770398   2.79797046   1.48861916
H   -0.80827987   2.26745047   2.07496549
H   -1.88757367   3.32906210   2.07403715
O    0.29443159   0.99052682  -4.44239029
H    0.23060678   1.18980519  -5.37643867
H    0.10432071   0.05426405  -4.38321495
O    2.57568865   0.80740157  -2.86250487
H    2.62035843   1.58080509  -2.30029188
H    1.91049201   1.02377795  -3.51590104
O   -3.84097480  -0.72229179   1.34488983
H   -3.29777708  -0.75085525   2.13251424
H   -3.65046053  -1.54379785   0.89204996
O    0.23524255   1.07591268   2.96663948
H    0.59013780   0.53496374   3.67208647
H    0.93952077   1.11912184   2.31983426
O    3.29202257  -1.46699796   0.39500058
H    2.81040575  -1.60826295  -0.42005849
H    4.21112815  -1.58208825   0.15368957
O   -2.74781077   1.13750729  -0.21633775
H   -3.25242518   0.53282325   0.32767820
H   -2.31045558   1.71517180   0.40916686
O    1.66696830  -1.48287972  -1.80464386
H    2.09843522  -0.73610029  -2.21984096
H    0.99479683  -1.09182447  -1.24652814
O    1.13022172  -0.94785749   4.56014736
H    1.64978488  -1.08588916   5.35212793
H    1.48602608  -1.57223192   3.92785654
O   -0.29334974  -1.59667372  -3.69232394
H   -0.30128919  -2.40168483  -4.21013271
H    0.44170794  -1.70656157  -3.08912686
O   -1.82479433  -0.75941807   3.26364226
H   -1.18016362  -0.05788571   3.17125482
H   -1.77950847  -1.00685264   4.18719907
O   -0.57688325  -2.36296755   1.47006990
H   -1.01738273  -1.90063354   2.18311921
H    0.27789598  -2.60010437   1.82972311
O   -0.09672566  -0.26884776  -0.18781961
H   -0.27915538  -0.98050231   0.42577558
H    0.60526974   0.23208885   0.22750776
O   -2.33218252  -0.71350981  -2.04039326
H   -2.54983024  -1.44985194  -1.46885011
H   -1.70862172  -1.07482599  -2.67035707
O    2.49334478   2.86689182  -1.00982292
H    1.62585092   3.26895244  -0.96472862
H    3.10077535   3.60664866  -1.01427052
O   -2.73026220  -2.74188730  -0.21271953
H   -1.95473669  -2.81740603   0.34323816
H   -3.07404765  -3.63354082  -0.26746814
H   -2.06229531   0.64674048  -1.45330447
