61
Energy:  -1429.00697308
O   -1.25287913   1.55316425  -2.32688853
H   -0.90382143   2.32712551  -1.88487660
H   -0.72048846   1.46793776  -3.11779211
O    3.02344364   1.58857471   1.53054553
H    3.76175819   1.95432694   2.01773007
H    2.91019696   2.18009911   0.78656574
O   -0.20471234   3.54381416  -0.89876157
H   -0.64310011   3.41567725  -0.05755473
H    0.72833477   3.47721624  -0.69573536
O    1.78691854  -2.77412339   2.52784496
H    2.30800385  -2.22201282   1.94485623
H    2.34665653  -3.52975788   2.70656749
O   -1.63226434   2.66000872   1.29441193
H   -0.95014440   2.17542609   1.75930322
H   -2.00379633   3.24474582   1.95492564
O    0.44490514   1.02194789  -4.41544617
H    0.21225945   1.19929561  -5.32684927
H    0.35441811   0.07334726  -4.32488798
O    2.64829248   1.53591299  -2.83098430
H    3.42912125   1.49724041  -3.38329101
H    1.91654958   1.49337041  -3.44659320
O   -3.89071030  -1.03735965   1.34691850
H   -4.78815474  -1.04333756   1.67976919
H   -3.35199796  -1.26321803   2.10521188
O    0.41237467   1.10899177   2.23618102
H    0.41294757   0.44713787   2.92768730
H    1.33680743   1.31982389   2.10501041
O    3.08077020  -1.10740616   0.85888290
H    2.85001817  -1.12094578  -0.06998848
H    3.16806513  -0.17808598   1.07095706
O   -2.87292443   0.84679211  -0.38448810
H   -3.28374252   0.21198881   0.20244045
H   -2.53173217   1.52589544   0.19743832
O    1.93676633  -0.84627450  -1.64584158
H    2.25445281  -0.01740490  -2.00400680
H    1.21060094  -0.59790947  -1.07380096
O    0.35851979  -0.98022507   4.03657315
H    0.73425516  -0.90189213   4.91345326
H    0.91261039  -1.62359338   3.59465384
O    0.15384356  -1.57624932  -3.56901107
H    0.29122251  -2.44944722  -3.93627704
H    0.84290651  -1.48134516  -2.91142662
O   -2.13620755  -1.92743659   3.31309748
H   -1.35481189  -1.51597267   3.68235363
H   -2.42526800  -2.54206423   3.98756673
O   -0.62247241  -2.73079342   1.16264818
H   -1.17891434  -2.55391049   1.92114450
H    0.23493991  -2.93443269   1.53628838
O   -0.14697193  -0.32012990  -0.03117023
H   -0.33714099  -1.18769171   0.32576685
H    0.06602355   0.21306596   0.73470636
O   -2.16594359  -0.88519470  -2.23831623
H   -2.46077665  -1.63175488  -1.71682490
H   -1.43080445  -1.22447231  -2.74889727
O    2.52002008   3.18812339  -0.63347215
H    2.59148565   2.66036255  -1.42882931
H    2.91249532   4.02921184  -0.86749195
O   -2.83803422  -2.80821495  -0.51550577
H   -3.37849420  -2.34632058   0.12542204
H   -2.04818270  -3.05144348  -0.03259137
H   -2.06933782   0.47416139  -1.60566873
