61
Energy:  -1433.62577014
O   -1.37465598   1.76035435  -2.01585014
H   -0.72705425   2.45533974  -1.89821024
H   -1.06897290   1.27465409  -2.78193432
O    3.58801377   1.21774362   1.09840002
H    4.47803226   1.54731283   1.22283096
H    3.34697530   1.50426302   0.21746930
O    0.45913165   3.69134967  -1.43934008
H    0.53645590   4.56701807  -1.81809813
H    0.14561012   3.84239329  -0.54764399
O    1.32265265  -2.26142552   3.12069561
H    1.94864895  -2.01335166   2.44038698
H    1.72077252  -3.01969947   3.54819184
O   -0.60079634   3.66288690   1.08799252
H    0.03127107   3.07549994   1.50235853
H   -0.72074500   4.37116109   1.72059969
O   -0.45259557   0.09661118  -4.01908290
H   -0.88719629   0.03590173  -4.86976993
H   -0.59845888  -0.75807329  -3.61353366
O    2.26380330   0.33335978  -3.50016213
H    2.79548058   0.27427554  -4.29392542
H    1.35998075   0.31572071  -3.81484532
O   -4.02728311  -2.23022576   0.16586812
H   -4.90133632  -2.60934395   0.07349800
H   -3.43096987  -2.94393586  -0.06053915
O    1.04971252   1.71027346   2.00881993
H    0.89053567   1.20010990   2.80294065
H    1.98549239   1.60315894   1.83830784
O    2.88262431  -1.45212624   1.08981307
H    2.66522689  -1.61554354   0.17206310
H    3.25776559  -0.57151317   1.09444788
O   -2.36243291   1.65068096   0.42403325
H   -2.33504488   1.08403485   1.19500272
H   -1.86744022   2.42881270   0.68040228
O    1.72578966  -1.43094631  -1.43952267
H    2.10209103  -0.92717425  -2.16121709
H    1.22382323  -0.79027275  -0.93573806
O    0.22246093   0.06298823   4.06120256
H    0.41309673   0.19837404   4.98940540
H    0.65380861  -0.76390051   3.84573557
O   -0.75849341  -2.09330974  -2.36440176
H   -1.11168971  -2.86630379  -1.92398783
H    0.14686689  -2.03582601  -2.05903283
O   -2.12409447  -0.07937460   2.57795160
H   -1.40896106   0.05203529   3.20048473
H   -2.89165288  -0.24444628   3.12552560
O   -0.77430236  -2.15817253   1.35011327
H   -1.39673023  -1.60114056   1.81758602
H   -0.07697353  -2.32381328   1.98456381
O    0.06659493   0.07764279   0.03782750
H   -0.19260927  -0.71259240   0.51171925
H    0.47151721   0.63435843   0.70291207
O   -2.56185250  -0.41180721  -1.18807819
H   -3.17767461  -0.96424776  -0.70661749
H   -1.95878916  -1.02912308  -1.60216462
O    2.64855002   1.99476642  -1.31104412
H    2.59762926   1.48018602  -2.11655386
H    1.94053763   2.63413119  -1.38954882
O   -1.87337437  -3.83795666  -0.50313483
H   -1.42262322  -3.36733883   0.19798863
H   -1.67695812  -4.76012895  -0.33805674
H   -2.03896109   0.98146956  -0.88125316
