61
Energy:  -1428.06219926
O   -0.82606882   1.51636610  -2.04978176
H   -0.00286934   1.76556614  -1.62969391
H   -0.60681050   1.43494732  -2.97796742
O    3.07656501   1.27109775   1.09453019
H    3.83843896   1.83164106   1.24140135
H    2.64722324   1.64628802   0.32568057
O    0.48541403   4.55034292  -0.33566508
H    0.25665353   5.47845629  -0.38572565
H   -0.13680454   4.18334401   0.29233786
O    1.77292180  -2.89837495   2.37949251
H    2.28150404  -2.41850390   1.72581084
H    2.29801799  -3.67603652   2.56856479
O   -1.13179313   3.09865688   1.40229408
H   -0.51553628   2.47959900   1.79373586
H   -1.58785567   3.48762231   2.14858135
O   -0.00993961   0.85976474  -4.59832315
H   -0.41327625   1.02610214  -5.45031098
H   -0.16938356  -0.06977032  -4.43469534
O    2.45521021   1.18892254  -3.40271421
H    3.20835667   1.23594775  -3.99160374
H    1.69686339   1.15082104  -3.98554371
O   -3.40833622  -0.55658782   1.60505662
H   -2.97204827  -0.86631990   2.39875097
H   -3.52381676  -1.34326960   1.07211397
O    0.60388885   1.13701236   2.25422473
H    0.63470316   0.48793113   2.95705890
H    1.51692420   1.24656129   1.98852313
O    3.07135231  -1.44496733   0.52851024
H    2.75473803  -1.44191601  -0.37480473
H    3.20317853  -0.52071631   0.73972990
O   -2.57865010   1.32568456  -0.11274032
H   -2.94794319   0.73638276   0.54496619
H   -2.15157044   2.01519997   0.39559354
O    1.67540072  -1.03217725  -1.84272174
H    2.03925512  -0.25572332  -2.26811699
H    1.09817343  -0.68495321  -1.16266587
O    0.73042164  -0.96541064   4.04183763
H    1.24160207  -0.90706525   4.84900690
H    1.16450833  -1.64924388   3.53176636
O   -0.37281464  -1.64244615  -3.51382093
H   -0.31763019  -2.52398806  -3.88269812
H    0.39609585  -1.57036777  -2.94830062
O   -1.88372149  -1.72763639   3.62039976
H   -1.03420475  -1.39827308   3.91378171
H   -2.29071237  -2.08025773   4.41175838
O   -0.78758824  -2.76303955   1.32865870
H   -1.21543095  -2.50245754   2.14430536
H    0.09922137  -3.00990921   1.59106285
O   -0.13075645  -0.39104663   0.11238581
H   -0.36993222  -1.22902103   0.50839806
H    0.13187085   0.15745536   0.85157747
O   -2.33674834  -0.61878874  -1.86993075
H   -2.69553906  -1.33247430  -1.34252770
H   -1.73707670  -1.04889016  -2.47955239
O    1.59633973   2.18270669  -0.98477099
H    2.02328636   2.15368910  -1.84098732
H    1.35089655   3.10075503  -0.86998100
O   -3.08200021  -2.65825407  -0.19088211
H   -2.27572391  -2.90696915   0.26110370
H   -3.56780723  -3.47779589  -0.28348120
H   -1.89325232   0.70837403  -1.26497213
