61
Energy:  -1432.94041675
O   -1.29164357   2.02667106  -1.87145412
H   -0.86697523   1.96998308  -2.72741856
H   -0.86727468   2.76928406  -1.44172301
O    3.04564756   1.38406017   2.00783416
H    3.86353483   1.80512664   2.27240039
H    2.89242667   1.69641934   1.11610161
O    0.01021129   3.93700865  -0.41205649
H   -0.01896598   4.89027277  -0.49371456
H   -0.43239356   3.75346604   0.41658390
O    0.68893859  -1.18032936   4.19688624
H    1.40332167  -1.32783585   3.57710362
H    1.10339321  -1.23407347   5.05803128
O   -1.37065207   3.02013141   1.79074258
H   -0.77458179   2.44371760   2.26894671
H   -1.85714499   3.48203162   2.47353441
O    0.02316520   1.63265443  -4.24914299
H   -0.22039340   2.05230057  -5.07425400
H   -0.24429492   0.71981933  -4.35604953
O    2.48394145   1.28173756  -3.03817385
H    3.21049422   1.44036633  -3.64082619
H    1.69974752   1.47808916  -3.55073388
O   -2.80152460  -1.15712841   1.56222655
H   -2.32379883  -1.62569187   2.24666663
H   -2.94153364  -1.81060723   0.87695672
O    0.16850493   0.39128916   0.18410643
H    0.14401198   0.53638828   1.12992787
H    0.86834196   0.96459296  -0.12859588
O    2.56723409  -1.35107261   2.28963135
H    2.31771172  -1.66550785   1.42066593
H    2.90564355  -0.46870345   2.13752757
O   -2.65562074   1.16488018   0.20309313
H   -2.79213927   0.40161067   0.76435438
H   -2.31067805   1.83665964   0.79127571
O    1.60444106  -1.37111494  -2.79107808
H    2.09737573  -0.55064828  -2.78203792
H    1.65613295  -1.69207297  -1.89077495
O    0.39831679   1.19143667   2.80384800
H    1.33049551   1.36376241   2.67126396
H    0.37504990   0.44355836   3.40081411
O   -0.70660559  -0.99058720  -4.07706366
H   -0.86739515  -1.67657761  -4.72498011
H    0.11999552  -1.23984605  -3.66374478
O   -1.26043020  -2.79310073   3.19603979
H   -0.58248396  -2.25345616   3.60273927
H   -1.69854513  -3.22225494   3.93096415
O   -0.46368920  -3.84128583   0.77565563
H   -0.69421753  -3.54281115   1.65542912
H   -0.10067699  -4.71721121   0.90683757
O    1.38943999  -1.99222368  -0.11543042
H    0.78132013  -2.68672992   0.13771610
H    0.88540396  -1.18440171  -0.01743455
O   -2.06033744  -0.48424946  -1.75522684
H   -2.29537879  -1.32965974  -1.37277572
H   -1.64922046  -0.70491949  -2.59100158
O    2.13563415   2.14721877  -0.46376676
H    2.35464797   1.93474717  -1.37102671
H    1.55202571   2.90315813  -0.52848714
O   -2.65849024  -2.88547913  -0.57492975
H   -1.89273869  -3.32171053  -0.20135434
H   -3.24076584  -3.60061646  -0.83137774
H   -1.94524762   0.86653311  -1.06547567
