73
Energy:   -457.92720316
C   -2.63493477   0.09052218  -2.85881722
H   -3.66464725   0.23644136  -2.60722231
H   -2.11016621  -0.28973628  -2.00739455
H   -2.56045031  -0.60875867  -3.66526464
C   -2.01539386   1.43423964  -3.28565728
N   -1.55411748   2.43469836  -3.60345911
C    1.13872738   3.48174441  -1.62968771
H    0.35699795   3.88802204  -2.23692553
H    1.41062952   4.19139290  -0.87644980
H    0.79717803   2.58083518  -1.16427854
C    2.36407549   3.17228027  -2.50966155
N    3.27640285   2.94187015  -3.16484207
C   -2.40562091   0.24332701   3.05274575
H   -1.49227580   0.00525848   2.54873754
H   -3.23452780   0.01379106   2.41625089
H   -2.47684933  -0.33152319   3.95239727
C   -2.42463317   1.74368514   3.39939254
N   -2.43878867   2.86076997   3.65748684
C    0.66539360   3.50506601   2.24833396
H    1.71795023   3.63553836   2.38976129
H    0.49183529   2.64686459   1.63329988
H    0.19260537   3.36484620   3.19791745
C    0.08075369   4.75426578   1.56328207
N   -0.35453730   5.68435180   1.05322980
C   -2.47774465   2.96065470  -0.02508948
H   -1.54219897   2.45324768   0.08533051
H   -2.60697588   3.65030335   0.78273669
H   -2.48751106   3.49277065  -0.95334392
C   -3.62418042   1.93251194  -0.01068499
N   -4.47775396   1.16701292   0.00003981
C    1.34928649   0.06874591  -3.86859104
H    2.33161098  -0.34296607  -3.97072839
H    1.06731517   0.06685881  -2.83641484
H    1.34321380   1.07288137  -4.23815049
C    0.35003986  -0.78118655  -4.67526382
N   -0.39394468  -1.41399990  -5.27586837
C   -0.65645810  -3.15130449  -2.34808810
H   -0.34565992  -2.19885153  -1.97240468
H   -1.62976363  -3.06258945  -2.78363956
H    0.03753182  -3.48550334  -3.09077796
C   -0.70176953  -4.16881342  -1.19300263
N   -0.73550596  -4.92639507  -0.33298899
C   -3.36612227  -2.20053286   0.22294308
H   -2.45112415  -1.65006191   0.15467641
H   -4.19177625  -1.54335335   0.04599765
H   -3.36827062  -2.98101987  -0.50899579
C   -3.49161927  -2.81533001   1.62931251
N   -3.58505748  -3.27307443   2.67641847
C    2.56361470  -3.07788721  -0.16323523
H    2.01441955  -3.97606306   0.02798454
H    2.01066786  -2.23734772   0.20096562
H    3.50953285  -3.12537836   0.33464280
C    2.78846066  -2.92658189  -1.67920060
N    2.95586870  -2.81392820  -2.80790572
C    2.05056169   0.36237852   3.31511269
H    1.71864738   0.18890419   4.31742987
H    1.20823733   0.36148701   2.65527335
H    2.54431443   1.31015262   3.26189994
C    3.02995451  -0.75075318   2.89878647
N    3.75915698  -1.57953033   2.58881268
C   -0.02162727  -3.14731214   2.53302919
H   -0.22121359  -2.46762603   1.73109885
H   -0.74468348  -3.93593819   2.52046962
H    0.95846785  -3.56011853   2.41511593
C   -0.10431617  -2.39638609   3.87499514
N   -0.16588181  -1.83728751   4.87414979
C    3.78178754   0.43973373  -0.64600511
H    4.24170912  -0.39505045  -0.15968454
H    4.33484172   0.68794029  -1.52772143
H    2.77726560   0.18711859  -0.91437118
C    3.76962035   1.64754613   0.30931744
N    3.76056133   2.54681736   1.02059850
Cl   0.00886430  -0.05468735   0.00184437
