73
Energy:   -459.62632436
C   -0.98458577  -0.99569726  -3.61673978
H   -1.51513189  -1.90452192  -3.81028237
H   -0.54095055  -1.04188288  -2.64413823
H   -0.21847432  -0.86633908  -4.35242912
C   -1.96212859   0.19262668  -3.67915972
N   -2.68995366   1.07738787  -3.72563420
C    0.56391304   2.74103526  -2.80389349
H    1.24242844   3.54062263  -2.59134452
H    0.54414488   2.06098847  -1.97803353
H   -0.41691479   3.13820225  -2.96243135
C    1.02746913   1.99736130  -4.07025236
N    1.37260772   1.44366223  -5.01311410
C   -2.93675574   0.72240754   2.60537877
H   -3.97449948   0.72777140   2.34468863
H   -2.80555126   0.21185582   3.53651862
H   -2.37980369   0.22060463   1.84190163
C   -2.43361060   2.17172406   2.73926898
N   -2.05899617   3.25080609   2.83895632
C    0.90811640   3.70433440   1.12418836
H    0.55960553   3.94147244   2.10765463
H    1.97702874   3.74828021   1.10433228
H    0.58670643   2.71855260   0.85993665
C    0.33386587   4.71857449   0.11763316
N   -0.09368976   5.47372233  -0.63179295
C   -2.68846179   2.95630758  -0.84360043
H   -2.76334504   3.20520099  -1.88155262
H   -1.92437197   2.21969964  -0.70767919
H   -2.44163232   3.83382866  -0.28330492
C   -4.03565637   2.39527655  -0.35175599
N   -5.03870396   1.97756345   0.01444456
C    2.65034867  -0.80386133  -2.67621667
H    1.80608809  -0.35338859  -2.19746980
H    2.31779358  -1.39419172  -3.50435689
H    3.31195380  -0.03918975  -3.02615255
C    3.39186803  -1.70312792  -1.66970356
N    3.94396290  -2.37267276  -0.92030879
C    2.51024139  -2.24675186   2.26682333
H    2.57441837  -1.86330536   3.26369357
H    1.83805217  -1.64202985   1.69465899
H    3.47973047  -2.22821067   1.81444492
C    1.98998402  -3.69566388   2.30665113
N    1.60262876  -4.77444473   2.33630474
C   -3.66374107  -1.03112236  -0.87745518
H   -2.80000501  -0.41027233  -0.76167331
H   -4.25951216  -0.98247488   0.01000712
H   -4.23911226  -0.68963393  -1.71245981
C   -3.22130512  -2.48618897  -1.11959477
N   -2.89189144  -3.56955221  -1.29987870
C    0.58461576  -3.88401634  -1.02525062
H    1.45764987  -4.30267170  -0.56979557
H   -0.27320432  -4.46091733  -0.74915452
H    0.45789895  -2.87492650  -0.69271546
C    0.74509667  -3.90349449  -2.55674221
N    0.86458200  -3.91799686  -3.69700731
C    0.66634438   0.97522970   3.85890116
H    0.33051553   1.98594605   3.75608281
H    0.19849491   0.52891763   4.71143943
H    0.40791308   0.42236522   2.98000798
C    2.19499097   0.95862096   4.04481443
N    3.33313784   0.94625500   4.18323531
C   -1.52822261  -3.12289104   1.97124545
H   -1.11022664  -2.53474018   1.18114538
H   -2.58417131  -3.21648930   1.82594986
H   -1.08022615  -4.09458408   1.96794556
C   -1.25482711  -2.43616426   3.32226774
N   -1.05127173  -1.92486496   4.32816525
C    3.69342265   0.94115963   0.72234404
H    4.09385747   1.45581768   1.57068314
H    4.30119318   0.08827635   0.50301740
H    2.69507287   0.62188171   0.93742175
C    3.67923798   1.88747435  -0.49251696
N    3.66867684   2.59204867  -1.39703620
Cl  -0.04472269  -0.02558126   0.10047463
