73
Energy:   -458.38215887
C   -3.01794496  -0.59536742  -2.82845647
H   -3.41965345  -1.58117516  -2.72022722
H   -3.77370710   0.12531882  -2.59535991
H   -2.19009458  -0.47239006  -2.16179357
C   -2.54353733  -0.39078577  -4.27920929
N   -2.19031930  -0.23846543  -5.35936071
C   -0.27979282   2.09090931  -3.44024615
H   -1.23174931   2.29348213  -3.88481704
H   -0.39002158   1.33644165  -2.68956163
H    0.39969577   1.74880401  -4.19268108
C    0.27100530   3.37760353  -2.79787599
N    0.68109953   4.33560586  -2.31960220
C   -1.40649341   1.46705752   3.48669969
H   -0.79077410   1.19199836   2.65595763
H   -0.86951850   1.30466692   4.39784530
H   -1.67081092   2.50089645   3.40788084
C   -2.68509405   0.60870142   3.48441889
N   -3.63707035  -0.03038371   3.48272074
C    1.47706473   3.74450460   0.93604355
H    2.54538326   3.71772813   0.88238981
H    1.11026177   4.55467625   0.34108424
H    1.07822968   2.82243781   0.56777390
C    1.04143026   3.94408840   2.39959707
N    0.71708060   4.09268761   3.48927920
C   -2.35572488   2.85135049   0.08346251
H   -2.73329520   3.64801965   0.68981148
H   -1.30541844   2.98664481  -0.06967441
H   -2.52695380   1.91671684   0.57543780
C   -3.07752163   2.85519352  -1.27690313
N   -3.61493212   2.85805484  -2.28975719
C    0.70139713  -1.64922346  -3.56874697
H    1.10319238  -1.07504438  -4.37731307
H    0.49371158  -1.00336287  -2.74132332
H   -0.20285009  -2.12608126  -3.88472593
C    1.72346611  -2.71885172  -3.14111349
N    2.48444293  -3.51523857  -2.82272092
C    3.37723963  -1.67415508  -0.05539865
H    4.03394293  -0.85020046   0.13098735
H    2.47895659  -1.31752503  -0.51453010
H    3.85801602  -2.37297365  -0.70763002
C    3.03297463  -2.36753936   1.27587887
N    2.77665370  -2.88379548   2.26707550
C   -3.56582699  -1.84915968   0.61262469
H   -2.65927056  -1.28101277   0.59635523
H   -4.31614868  -1.30823299   1.15050458
H   -3.89840670  -2.01891468  -0.39010811
C   -3.31202162  -3.20107871   1.30508247
N   -3.12305199  -4.20764388   1.82064876
C    0.00527982  -3.82078661  -0.11042505
H    0.90293243  -4.26158418  -0.49097398
H   -0.36642646  -4.41189770   0.70032842
H    0.21362152  -2.83027988   0.23654649
C   -1.05154791  -3.76119865  -1.22897967
N   -1.83840419  -3.71683271  -2.06179442
C    2.29107434   0.55791786   3.18922944
H    1.50983892   0.22661810   2.53745350
H    1.91322510   1.31706473   3.84178217
H    2.64512531  -0.26794586   3.77017360
C    3.44972311   1.13076525   2.35198463
N    4.31238979   1.55727617   1.72861781
C   -0.46083364  -2.37439930   3.34382310
H   -0.39434662  -1.72579126   2.49542033
H   -1.47104617  -2.70741249   3.45989189
H    0.17876857  -3.21963482   3.19758693
C   -0.02312267  -1.61211132   4.60830961
N    0.30277305  -1.04455326   5.54977730
C    3.24231886   1.73022921  -1.52184683
H    3.08811942   2.78859514  -1.55321987
H    4.19846944   1.52177446  -1.08915551
H    2.47598868   1.27554967  -0.92947560
C    3.19105122   1.16139009  -2.95201943
N    3.15288012   0.73786350  -4.01684794
Cl  -0.06509211   0.10439650   0.01338955
