73
Energy:   -459.07657951
C   -3.43122099  -0.32035895  -1.98371971
H   -4.12565495  -0.34836557  -1.17016129
H   -2.44448416  -0.51242732  -1.61716922
H   -3.69553466  -1.06607769  -2.70409525
C   -3.47150460   1.06966456  -2.64539325
N   -3.50149758   2.10460025  -3.13803928
C   -0.21801526   2.90278573  -2.77114675
H    0.42654376   2.59486629  -3.56778310
H   -1.09221500   3.36617012  -3.17851489
H   -0.50349700   2.04887477  -2.19301585
C    0.52337735   3.90802766  -1.87035506
N    1.07537785   4.65647596  -1.19967471
C   -1.52540708   0.77441273   3.58332623
H   -1.03702478   0.37477193   4.44742700
H   -0.94382985   0.55626190   2.71207584
H   -2.49476945   0.33217874   3.48501657
C   -1.67019206   2.30005990   3.73510901
N   -1.77799105   3.43597357   3.84811820
C    1.26670053   3.32943967   1.98566852
H    0.82947815   2.50771214   1.45793692
H    0.92302603   4.24946260   1.56099837
H    0.98174090   3.28377845   3.01601416
C    2.80073988   3.25368567   1.87348735
N    3.94290190   3.19728337   1.78996337
C   -2.36686992   3.04889924   0.31888366
H   -2.59973716   3.43570366  -0.65119642
H   -1.42737068   2.53805892   0.28307244
H   -2.30788750   3.85531708   1.01967637
C   -3.46878432   2.06677758   0.75799834
N   -4.28920968   1.33554337   1.08493918
C   -0.05754009  -0.65841567  -4.01800012
H    0.23676111   0.10747408  -4.70480422
H    0.05127808  -0.29978825  -3.01578054
H   -1.07971660  -0.92145899  -4.19367731
C    0.83344102  -1.89829623  -4.21911912
N    1.49681696  -2.82144367  -4.36886136
C    3.13253646  -1.98147062  -1.41890529
H    2.18156105  -1.49322302  -1.46538367
H    3.27391948  -2.57162628  -2.30016928
H    3.90778557  -1.24689802  -1.35339945
C    3.18196519  -2.89203622  -0.17792701
N    3.21876713  -3.56999371   0.74603772
C   -3.20670007  -1.87781699   1.39584348
H   -2.41592523  -1.28554567   0.98500288
H   -3.31255663  -1.65814395   2.43768667
H   -4.12163042  -1.65218028   0.88900068
C   -2.87565407  -3.37116080   1.21714590
N   -2.62917527  -4.48302314   1.08409742
C   -0.19940310  -3.77980286  -1.21661827
H   -0.40976035  -4.61769402  -0.58527969
H   -0.04682902  -2.90874390  -0.61422592
H    0.68310769  -3.97691097  -1.78865165
C   -1.38639647  -3.54385091  -2.16896979
N   -2.27016699  -3.36817396  -2.87803878
C    3.16763546  -0.28527257   2.27223304
H    3.51102449  -1.28542669   2.43556061
H    4.00781394   0.36070034   2.12486204
H    2.54194720  -0.26020497   1.40460126
C    2.36470494   0.18840584   3.49801089
N    1.76688667   0.54108095   4.41065822
C    0.45561367  -2.87260376   2.62199330
H    0.47079794  -2.00329487   1.99831736
H    0.20993170  -3.73068877   2.03188350
H    1.41920659  -3.00948459   3.06657333
C   -0.59949733  -2.69175135   3.72907649
N   -1.38507542  -2.55709851   4.55335025
C    3.33617880   1.80648692  -1.26273454
H    3.41458185   2.86986696  -1.17342584
H    4.25193979   1.35339094  -0.94495329
H    2.53284060   1.45531481  -0.64936273
C    3.06153173   1.43355876  -2.73143927
N    2.85704451   1.15589680  -3.82495670
Cl   0.05121886   0.02179150  -0.09669791
