73
Energy:   -458.20501270
C   -2.08464205  -1.25232685  -3.21007187
H   -2.46826363  -2.23218084  -3.01611104
H   -1.38784169  -0.98394565  -2.44369083
H   -1.59131076  -1.24393198  -4.15952058
C   -3.24541570  -0.24041839  -3.22574990
N   -4.10966445   0.51299345  -3.23742291
C    0.74291781   3.49293586  -1.86447778
H    1.26014182   4.19407588  -1.24336412
H    0.47281040   2.63477412  -1.28525459
H   -0.14074564   3.94970970  -2.25868034
C    1.65907107   3.06151613  -3.02471061
N    2.34118882   2.74030453  -3.88855669
C   -2.38453344   1.58319363   2.81127091
H   -2.68194241   2.55666241   2.48141245
H   -3.25090606   1.02176896   3.09251799
H   -1.87434716   1.07816910   2.01782319
C   -1.44384311   1.71701614   4.02320871
N   -0.74345639   1.81665308   4.92555149
C    1.34937315   3.02271372   2.08063311
H    1.21378190   2.74028167   3.10373981
H    2.24890469   3.59412824   1.98457298
H    1.41861547   2.14388846   1.47419205
C    0.15021086   3.87164794   1.61920000
N   -0.74261996   4.50371805   1.27564207
C   -2.77511577   2.82026488  -0.98116095
H   -3.01993295   2.71809384  -2.01775431
H   -2.06235479   2.07063022  -0.70744806
H   -2.35752022   3.78992991  -0.80719892
C   -4.04963275   2.65063526  -0.13355710
N   -4.99856857   2.52433830   0.49752249
C    1.59491305  -0.62022944  -3.67987844
H    0.94059993  -1.35335656  -4.10331576
H    1.78709513   0.14578012  -4.40181645
H    1.13507810  -0.18848190  -2.81556081
C    2.92185721  -1.28895049  -3.27536473
N    3.90982746  -1.78684370  -2.97418589
C    3.24356865  -2.34442821   0.29530116
H    4.05836460  -1.77759019   0.69492899
H    2.48250016  -1.67796295  -0.05326432
H    3.59218560  -2.94478504  -0.51890827
C    2.66449244  -3.25539959   1.39366444
N    2.23334387  -3.93365919   2.21144582
C   -3.85802805  -0.82413213   0.28057192
H   -2.94735093  -0.26486786   0.22774348
H   -4.22933690  -0.80711963   1.28393596
H   -4.58261432  -0.38859421  -0.37530959
C   -3.59145212  -2.28039152  -0.14351048
N   -3.39297423  -3.36464282  -0.45925910
C    0.05167518  -3.89307984  -1.07561750
H   -0.86024210  -4.34671286  -0.74770876
H    0.09169649  -2.88161014  -0.72888067
H    0.88337419  -4.43853883  -0.68109204
C    0.10952885  -3.91089449  -2.61442730
N    0.15260354  -3.92415831  -3.76014114
C    1.44090896  -0.51083934   3.53450405
H    0.69714458  -0.22314563   2.82109880
H    1.23573308  -0.04005872   4.47320931
H    1.42496983  -1.57362913   3.65747925
C    2.82961645  -0.07285178   3.03324722
N    3.86357230   0.25324986   2.66003873
C   -1.05827674  -2.98765468   2.33688530
H   -0.52268813  -2.29330720   1.72375677
H   -1.51849417  -3.72906519   1.71768463
H   -0.38005924  -3.46092155   3.01580989
C   -2.14288300  -2.23876728   3.13337567
N   -2.95042166  -1.68118657   3.72639895
C    3.85326822   1.16074292  -0.70459927
H    4.54343342   0.64848010  -0.06729323
H    4.11477277   0.98573751  -1.72728572
H    2.86314602   0.79821878  -0.52257352
C    3.90861108   2.67166186  -0.41192006
N    3.94981637   3.79660969  -0.19400708
Cl   0.01276554  -0.00986364  -0.06771691
