73
Energy:   -459.27222353
C   -2.62307007  -0.43337133  -3.07539198
H   -3.64018933  -0.20841199  -2.83092954
H   -2.06115616  -0.56788648  -2.17480466
H   -2.58605636  -1.33115984  -3.65634367
C   -2.02118566   0.72860305  -3.88727295
N   -1.57305535   1.59374578  -4.49175523
C    0.87017655   2.87413649  -2.40339456
H    0.28476706   3.72549958  -2.68156140
H    0.22977812   2.11659353  -2.00224918
H    1.37721879   2.49297937  -3.26509434
C    1.90466367   3.28768768  -1.34018630
N    2.67488636   3.59559535  -0.54857943
C   -2.59092315   0.71746448   2.84817682
H   -2.30821342   0.75737991   1.81697260
H   -3.43687702   1.35211425   3.01090605
H   -2.84425222  -0.28863763   3.10986751
C   -1.41566605   1.19463063   3.72149418
N   -0.54063372   1.54990252   4.37171865
C   -0.29631192   3.84157793   1.50121066
H    0.65455870   4.10050958   1.91798355
H   -0.26172321   2.83876568   1.12963253
H   -1.04944243   3.91588280   2.25763139
C   -0.63069235   4.80526815   0.34748154
N   -0.87965378   5.52277933  -0.51152223
C   -3.08121115   2.58743076  -1.01209783
H   -3.89912145   2.17191139  -1.56279428
H   -2.34355661   1.83083232  -0.84380149
H   -2.64725492   3.39086509  -1.56983824
C   -3.59027633   3.11806033   0.34100412
N   -3.96929850   3.51313816   1.34845003
C    0.98250837  -1.17471532  -3.55004275
H    1.49287916  -0.65842426  -4.33608688
H    0.68527085  -0.47446321  -2.79758284
H    0.11601076  -1.66126581  -3.94671590
C    1.92286631  -2.22536097  -2.93079266
N    2.62300554  -3.00761441  -2.46973283
C    3.53868138  -3.08379910   0.77027278
H    4.35519892  -2.68950288   1.33836589
H    2.85224559  -2.29638309   0.53858113
H    3.90963159  -3.51215204  -0.13736636
C    2.81756863  -4.16807526   1.59242947
N    2.28066741  -4.97536814   2.20456250
C   -3.48722743  -2.01793302   0.46112016
H   -2.49680776  -1.62321108   0.55147306
H   -3.48483583  -2.83176414  -0.23355406
H   -3.82121734  -2.36541432   1.41642461
C   -4.43543940  -0.91461381  -0.04403406
N   -5.14142631  -0.09314251  -0.42014434
C   -0.14320891  -3.74317373  -0.28487227
H    0.44750517  -4.63531143  -0.27798943
H   -0.78730325  -3.73528351   0.56951600
H    0.50045193  -2.88897289  -0.25420071
C   -0.99277322  -3.69992894  -1.56860526
N   -1.62531247  -3.66773123  -2.52440282
C    2.35332336   1.60052964   2.52277905
H    1.43473830   1.21150743   2.13578630
H    2.73352252   2.34652425   1.85656607
H    2.17909126   2.03644140   3.48430035
C    3.37896239   0.45936714   2.65473635
N    4.14259726  -0.39028022   2.75298455
C    0.68942993  -1.83964634   3.24174271
H    0.70195814  -0.94474972   3.82817537
H    0.96674775  -1.60973654   2.23420343
H    1.38339339  -2.54389355   3.65082666
C   -0.72652283  -2.44493830   3.25904640
N   -1.78076403  -2.89560568   3.27192978
C    3.79065757   0.27901215  -0.89010439
H    4.43978385  -0.54730721  -0.68828378
H    2.78890618   0.02064922  -0.61689780
H    4.10748714   1.12852604  -0.32191053
C    3.84217647   0.61747947  -2.39156557
N    3.88053464   0.86948377  -3.50947167
Cl  -0.12119105  -0.00364476  -0.00637804
