73
Energy:   -458.29709490
C   -2.34074608  -0.39878490  -3.03626241
H   -1.89347160  -0.17016233  -2.09149924
H   -1.87152448  -1.26562130  -3.45258539
H   -3.38479557  -0.58918652  -2.89985503
C   -2.15716420   0.79380406  -3.99314760
N   -2.02047915   1.68174074  -4.70559213
C   -1.06771535   3.37676340  -1.74549779
H   -1.53541875   3.54751035  -2.69259821
H   -1.55516224   3.96444785  -0.99588349
H   -1.14422550   2.34013027  -1.49165327
C    0.41710710   3.77716665  -1.82661193
N    1.52262492   4.07528507  -1.88700509
C   -1.07831176   0.59842174   3.96110391
H   -2.09826777   0.86236100   4.14798887
H   -0.84450023  -0.30931500   4.47709352
H   -0.93276958   0.45899478   2.91025821
C   -0.15632169   1.72568145   4.46192310
N    0.53014183   2.56497754   4.83480575
C    1.34954578   3.55943568   1.69407886
H    1.82910758   3.75324641   2.63075279
H    1.96208308   3.92627397   0.89713042
H    1.20661343   2.50540746   1.57791543
C   -0.01654724   4.26953416   1.66016704
N   -1.03366558   4.79823476   1.63491815
C   -3.10574835   2.09417375   1.21564499
H   -2.05735289   1.92462479   1.08518315
H   -3.44443304   1.57824595   2.08972181
H   -3.28617951   3.14283857   1.32809851
C   -3.86751668   1.57145352  -0.01645588
N   -4.43468783   1.18226455  -0.93381099
C    1.41671916   0.83218213  -3.59178259
H    2.43951565   1.07017702  -3.79707736
H    1.22621402   0.94989259  -2.54547903
H    0.77946872   1.48882559  -4.14642692
C    1.13600552  -0.62484602  -4.00393407
N    0.92700147  -1.70966970  -4.31079958
C    2.40661942  -2.63127583  -1.16811027
H    1.56796614  -1.96714001  -1.19012100
H    2.06061523  -3.64355415  -1.18985411
H    3.02867108  -2.44860920  -2.01933510
C    3.21635266  -2.39311384   0.11999336
N    3.81923586  -2.21579141   1.07904506
C   -3.06750648  -2.06719604   0.20970093
H   -3.10661787  -3.13625441   0.18768559
H   -2.08643466  -1.74044356  -0.06530818
H   -3.78226491  -1.66985519  -0.48032785
C   -3.39450806  -1.57070335   1.63032226
N   -3.63797561  -1.20104198   2.68803942
C   -0.81947118  -4.02177799  -2.58889488
H   -0.41419113  -3.98488951  -3.57848444
H   -0.48025749  -4.90963211  -2.09741931
H   -0.49527196  -3.16338919  -2.03847448
C   -2.35759291  -4.03246183  -2.66417712
N   -3.50279444  -4.04041643  -2.72022817
C    2.82689422   0.21553447   3.24223692
H    3.78957797  -0.12610876   2.92377173
H    2.90482897   1.22230046   3.59614017
H    2.14494356   0.17881024   2.41852962
C    2.31067973  -0.68889126   4.37675739
N    1.92633459  -1.36227733   5.22145944
C    0.21862085  -2.67431430   2.38845564
H    0.99675299  -2.03923026   2.01956702
H    0.51646317  -3.09570449   3.32580261
H   -0.67536702  -2.10189838   2.52271204
C   -0.04330425  -3.80572675   1.37706990
N   -0.23831940  -4.64811474   0.62404724
C    3.57681593   1.29769657  -0.39293520
H    4.29629895   1.93344626   0.07936418
H    3.19323293   0.60026782   0.32215663
H    2.77430829   1.89158351  -0.77787529
C    4.24838332   0.53171367  -1.54786700
N    4.74839576  -0.03859541  -2.40776622
Cl   0.11474260   0.20054464   0.13149497
