73
Energy:   -460.31819041
C   -3.46273114  -0.00335946  -2.04722431
H   -3.76531800   1.01292041  -2.19046048
H   -2.50562622  -0.02656749  -1.56940568
H   -4.18032766  -0.50595851  -1.43293730
C   -3.37194517  -0.70927490  -3.41288946
N   -3.30435088  -1.23486102  -4.42968924
C   -2.90619486   2.58615076   0.72328097
H   -3.33617525   3.09609934  -0.11336082
H   -3.67202695   2.36110468   1.43584995
H   -2.45000024   1.67713129   0.39091197
C   -1.84169613   3.48441427   1.38021713
N   -1.04912844   4.15321228   1.86933597
C   -0.68178406   1.06982191   3.88517462
H   -0.44498635   0.56064705   2.97436839
H   -0.31796966   0.50223763   4.71606947
H   -0.22125959   2.03564533   3.88398037
C   -2.20903024   1.22948672   4.00190629
N   -3.34613443   1.34836443   4.08881833
C    0.24671926   3.55105114  -1.63350409
H    0.18354981   4.36069164  -0.93680325
H    0.95996771   3.79012534  -2.39443726
H    0.55512818   2.66340480  -1.12177468
C   -1.13278926   3.31923271  -2.27756655
N   -2.15989606   3.14663335  -2.75710032
C    0.05350799   0.24904070  -3.96857935
H    0.08468117   0.08492913  -2.91169912
H    0.31123852  -0.65603012  -4.47781493
H   -0.93278734   0.55032037  -4.25380060
C    1.05723240   1.35424856  -4.34627354
N    1.80455085   2.17712604  -4.62748403
C    3.28998176   1.18506537  -1.63561624
H    3.33824702   2.24381973  -1.78261910
H    2.26711631   0.88335674  -1.54833937
H    3.73839036   0.68825077  -2.47048394
C    4.04730569   0.81052639  -0.34806778
N    4.61116777   0.53166510   0.61057057
C   -0.97674131  -3.05526651  -2.33540638
H   -0.51784169  -2.78679684  -3.26397267
H   -0.90010860  -2.23718086  -1.65001423
H   -2.00827221  -3.28638401  -2.50101980
C   -0.26287288  -4.28645970  -1.74705682
N    0.26863461  -5.20313899  -1.30900383
C   -3.27146060  -1.25809893   1.81856181
H   -2.32663904  -0.77231215   1.69118989
H   -3.31033579  -1.71455160   2.78553584
H   -4.05757442  -0.53731988   1.73252864
C   -3.44393019  -2.33770307   0.73398395
N   -3.57234163  -3.14151742  -0.07353357
C    2.75979604  -2.58198879  -0.65272381
H    3.76094359  -2.36286210  -0.34517342
H    2.55105513  -3.61660513  -0.47695305
H    2.07487941  -1.97985649  -0.09305874
C    2.60509047  -2.27491317  -2.15384697
N    2.48990515  -2.04628141  -3.27150140
C    2.58780507  -0.76335884   2.96324925
H    1.89585211  -0.68053493   3.77518612
H    2.10821886  -0.46593373   2.05416484
H    3.42997141  -0.12919212   3.14624522
C    3.06185658  -2.22336180   2.83969144
N    3.41480948  -3.31040036   2.74769704
C   -0.13561461  -3.53114208   1.69852636
H   -0.08115823  -2.79155914   0.92719520
H   -0.94160169  -4.20375666   1.49146707
H    0.78400373  -4.07692368   1.73490823
C   -0.37753561  -2.84200773   3.05431693
N   -0.55765679  -2.32891588   4.06376464
C    2.07890183   2.87696734   1.89731049
H    1.63942612   3.44972789   2.68706148
H    2.84026977   2.24131374   2.29876092
H    1.32554359   2.27895225   1.42855853
C    2.69989145   3.82818270   0.85752145
N    3.16224645   4.53640577   0.08335125
Cl  -0.05404241   0.04410186   0.08993549
