73
Energy:   -459.09854684
C   -1.21176826  -0.49079832  -3.58356362
H   -1.36189555   0.28369172  -4.30642402
H   -0.76505293  -1.33958696  -4.05780232
H   -0.56619389  -0.13466963  -2.80812492
C   -2.56778027  -0.89642368  -2.97668678
N   -3.57739285  -1.19843020  -2.52483939
C    0.68900669   3.00258091  -2.66062075
H    1.58133399   3.51353511  -2.36468499
H    0.46067999   2.24018815  -1.94541219
H   -0.12137863   3.69952872  -2.71000172
C    0.89969163   2.36137950  -4.04484349
N    1.05655615   1.88397590  -5.07546024
C   -2.29478995   2.13322365   2.63069326
H   -2.77130362   2.82740071   1.97042580
H   -3.03262323   1.66240156   3.24618307
H   -1.78181796   1.38986834   2.05694966
C   -1.28533251   2.88163674   3.52090308
N   -0.53374557   3.43886431   4.18370475
C    1.16292452   3.69308786   0.98853592
H    1.93446293   4.12047954   0.38275953
H    1.16891326   2.62909473   0.87547913
H    1.33494052   3.94372592   2.01444535
C   -0.20371020   4.24858761   0.54657488
N   -1.22123187   4.66218243   0.21751480
C   -3.07501868   2.19144187  -1.14547215
H   -2.13810184   1.88631339  -0.72835871
H   -3.77022407   1.37978134  -1.09259743
H   -3.45683247   3.02463344  -0.59328637
C   -2.87337569   2.59961091  -2.61664112
N   -2.72324332   2.90351132  -3.71199329
C    2.52745724  -0.71668849  -3.02769957
H    2.72104031   0.21203891  -3.52256438
H    1.85826137  -0.55198984  -2.20919463
H    2.08404120  -1.40319124  -3.71834801
C    3.85017414  -1.30235490  -2.49948098
N    4.83499699  -1.73841017  -2.10619823
C    2.57975632  -3.10577747   0.32948640
H    2.99204274  -3.38446387  -0.61774852
H    3.37004472  -2.82345825   0.99329299
H    1.91175238  -2.28020243   0.19873599
C    1.81037250  -4.29921906   0.92559521
N    1.23753128  -5.18779057   1.36942531
C   -3.75980617  -0.97308323   0.84463213
H   -2.81088057  -0.77548968   0.39142447
H   -3.84806876  -0.40736131   1.74855000
H   -4.54221257  -0.69288065   0.17066934
C   -3.87243738  -2.47497182   1.16594953
N   -3.95629643  -3.59319614   1.40518493
C   -1.22856282  -3.52900454  -0.88792098
H   -1.08145245  -4.34568397  -0.21242603
H   -2.20019543  -3.60239041  -1.33001110
H   -1.14864220  -2.60539342  -0.35364176
C   -0.15689117  -3.57728552  -1.99281411
N    0.64101707  -3.61323291  -2.81545727
C    1.29917520   0.56413990   3.71067531
H    0.66371144   0.62218335   2.85177081
H    1.87796509   1.46081047   3.78737765
H    0.70056999   0.44968984   4.59014792
C    2.24228892  -0.64521420   3.57067833
N    2.94447996  -1.54563330   3.46644422
C   -0.64847603  -2.67790992   2.82683308
H   -0.23756171  -2.22168460   1.95052945
H   -1.27331417  -3.49852425   2.54210776
H    0.14564522  -3.03357787   3.44954556
C   -1.48352811  -1.64156433   3.60160779
N   -2.10526234  -0.86995793   4.17846277
C    3.85662353   0.45644467   0.57143692
H    4.06115775   0.80100009   1.56357980
H    4.61937497  -0.22981504   0.26786330
H    2.90656488  -0.03545447   0.55346762
C    3.83182946   1.65621257  -0.39372743
N    3.81336914   2.54949431  -1.11233616
Cl   0.01664822   0.07002481   0.08673885
