73
Energy:   -459.87023927
C   -2.38658774  -1.58777262  -2.74199329
H   -3.40532555  -1.89097084  -2.61893111
H   -1.97693103  -1.31938282  -1.79065351
H   -1.82185586  -2.39558393  -3.15842803
C   -2.32275791  -0.37502796  -3.68897593
N   -2.27523370   0.52791558  -4.39404755
C   -0.05534858   2.71201796  -2.94069045
H   -0.24136343   2.39013132  -3.94402871
H   -0.07180287   1.86596277  -2.28584775
H    0.90354593   3.18403841  -2.88953279
C   -1.14403760   3.71362630  -2.51274542
N   -1.95461606   4.45936924  -2.19412088
C   -0.48690253   3.71190687   0.99095806
H   -1.17080920   4.45345218   0.63419150
H   -0.39481205   3.79356514   2.05385521
H   -0.85250656   2.73854721   0.73836398
C    0.89106936   3.92801973   0.33820334
N    1.91703206   4.08892558  -0.14780222
C   -1.58215831   1.20246200   3.60481788
H   -2.01109964   0.33744823   4.06596937
H   -1.36390870   0.98873295   2.57934916
H   -2.27453104   2.01638868   3.65997626
C   -0.28241826   1.58359995   4.33762731
N    0.68529729   1.86737447   4.88323724
C   -3.52178828   1.57858548  -0.98179346
H   -4.12695659   0.73017967  -1.22444357
H   -2.48827081   1.31840712  -1.07691418
H   -3.75018257   2.38244553  -1.65003306
C   -3.80957433   2.01716120   0.46611210
N   -4.02384412   2.34370076   1.54414361
C    1.17135933  -1.11459846  -3.57565716
H    1.06765370  -0.19793307  -4.11775484
H    0.86439638  -0.96588985  -2.56147839
H    0.55900703  -1.86709515  -4.02695804
C    2.64374725  -1.56490870  -3.60556520
N    3.74000699  -1.90018514  -3.62783310
C    2.99425840  -2.64308043  -0.23291825
H    4.00173099  -2.30193471  -0.11664807
H    2.32446532  -1.81311523  -0.14669703
H    2.87971546  -3.09529965  -1.19587037
C    2.67310796  -3.67774892   0.86157867
N    2.43399686  -4.44810664   1.67648138
C   -3.44557698  -1.32041463   1.82438942
H   -2.44480732  -1.07807708   1.53347230
H   -3.42966685  -2.15023040   2.49970545
H   -3.89098716  -0.47592835   2.30745441
C   -4.26777965  -1.69031476   0.57588765
N   -4.87994691  -1.96572223  -0.35367866
C   -0.86997097  -3.74373260   0.47427682
H   -1.93478304  -3.84822911   0.46179058
H   -0.61115659  -2.77286724   0.84215540
H   -0.44566875  -4.49134950   1.11140764
C   -0.32061384  -3.91464696  -0.95421716
N    0.08840751  -4.04190046  -2.01779585
C    2.88242024   1.59941170   2.20657838
H    2.83154991   1.87752346   3.23855039
H    1.90842203   1.31778606   1.86465210
H    3.23659465   2.42877487   1.63071701
C    3.84772013   0.41080398   2.04223794
N    4.56642979  -0.47416851   1.91987902
C    1.28371383  -1.63105992   3.39861493
H    1.29342153  -1.34639999   2.36722040
H    1.98480332  -2.42381827   3.55643384
H    1.55373170  -0.79051574   4.00316015
C   -0.12792919  -2.10953413   3.78581825
N   -1.17896158  -2.46577993   4.07410873
C    3.45001603   1.22299042  -1.41474664
H    2.46591133   1.04405497  -1.03472005
H    3.93073740   1.97238106  -0.82126561
H    4.01815817   0.31719135  -1.37422937
C    3.35681161   1.70563580  -2.87418708
N    3.28741669   2.06498723  -3.96080682
Cl  -0.09318401  -0.00218131   0.10063367
