73
Energy:   -460.32109660
C   -2.31690158  -3.41675660  -1.98332097
H   -1.75197593  -2.62555796  -1.53637142
H   -2.25352742  -4.29100818  -1.36967043
H   -3.34027464  -3.11757430  -2.07330221
C   -1.74829043  -3.72782188  -3.38028903
N   -1.32493359  -3.95942412  -4.42039524
C   -0.17503815   3.84824603  -1.24611502
H   -0.18927722   2.77900644  -1.28385261
H    0.83611212   4.19368192  -1.30222448
H   -0.73260318   4.24167978  -2.07026926
C   -0.80736932   4.32373264   0.07512294
N   -1.27816862   4.67775404   1.05884467
C    0.86320888  -0.17250426   4.49447751
H    1.86094392  -0.53499645   4.62873239
H    0.64475496  -0.10818996   3.44899167
H    0.17382072  -0.84394456   4.96224987
C    0.73382998   1.22302360   5.13272754
N    0.63750150   2.26205752   5.60793370
C    1.77655103   2.77134550   2.17753034
H    1.07191631   3.53944352   2.41922340
H    2.40583768   2.58580719   3.02279535
H    1.25245072   1.87490185   1.91944754
C    2.63931013   3.22310455   0.98456743
N    3.28167349   3.55945970   0.09635232
C   -2.00135268   1.85048833   2.84048695
H   -1.32578821   1.66165369   2.03249295
H   -1.79231750   1.17676713   3.64503845
H   -1.88009814   2.85838229   3.17863811
C   -3.44903339   1.64130974   2.35875583
N   -4.52689749   1.48556677   2.00008512
C   -0.81280818  -0.39178267  -3.84235474
H   -0.74341537  -0.61794402  -2.79883384
H    0.04547307  -0.78056311  -4.34940716
H   -1.69782243  -0.83768812  -4.24586087
C   -0.87420653   1.13504706  -4.03372144
N   -0.91992039   2.27184120  -4.17620266
C    1.53723398  -2.99636269  -2.03874846
H    1.81785520  -3.01199088  -3.07117650
H    1.18017672  -2.02120619  -1.78091319
H    0.76385770  -3.71592908  -1.86841808
C    2.76033061  -3.34172907  -1.16906076
N    3.67098165  -3.59887004  -0.52153874
C   -3.07222474  -1.78029119   1.18707620
H   -3.21418377  -2.78773790   0.85571697
H   -2.41820472  -1.27107797   0.51042355
H   -4.01656244  -1.27802525   1.21630500
C   -2.45006830  -1.78609493   2.59579465
N   -1.98684455  -1.79041607   3.64464958
C   -3.24280129   1.75465065  -1.21370129
H   -2.46861275   1.54618386  -0.50512956
H   -4.05814608   2.23958570  -0.71877708
H   -2.86060825   2.39413487  -1.98174263
C   -3.73364019   0.43636145  -1.84043150
N   -4.09909207  -0.54516478  -2.30706063
C    3.87496858  -0.19380380   0.12167226
H    2.90940003  -0.45785358  -0.25628972
H    4.59646650  -0.91044220  -0.21114787
H    4.14510360   0.77735457  -0.23718368
C    3.83745529  -0.18008796   1.66115419
N    3.80952494  -0.16987589   2.80736847
C    1.18373860  -2.88258026   2.07526168
H    2.17673676  -3.26470466   1.96196656
H    0.91757837  -2.88278405   3.11162927
H    1.14086468  -1.88289132   1.69620636
C    0.19933996  -3.77111983   1.29228227
N   -0.53358957  -4.43267793   0.70931851
C    2.45254367   1.77509089  -2.68822524
H    1.83045818   2.39029169  -3.30421048
H    3.37468675   2.28182093  -2.49386501
H    1.95310312   1.57600753  -1.76311766
C    2.73950660   0.44687804  -3.41286507
N    2.95316354  -0.54203681  -3.95239236
Cl   0.04813955   0.11884985  -0.08313270
