73
Energy:   -458.85994303
C   -2.88276772   0.43961144  -3.10685003
H   -3.81777240   0.24284167  -2.62524014
H   -2.08482416   0.29700306  -2.40838885
H   -2.75858899  -0.23030770  -3.93188765
C   -2.86422668   1.89224763  -3.61783369
N   -2.85042203   2.97380131  -3.99828426
C    0.62158821   2.37535434  -3.06599190
H   -0.05856133   2.78741086  -3.78188729
H    0.13780764   1.58816532  -2.52637269
H    1.47970430   1.98555092  -3.57253822
C    1.06173260   3.47629220  -2.08323621
N    1.38944010   4.29599047  -1.35152992
C   -2.39071700   1.12961435   2.86128050
H   -3.15170528   0.41544398   3.09741122
H   -2.02829194   0.95026074   1.87063453
H   -2.79833271   2.11727083   2.91857963
C   -1.23041994   0.99413365   3.86475233
N   -0.36652603   0.89326212   4.61188271
C    1.21034246   3.20154013   1.91776508
H    1.64786463   2.62590984   2.70651364
H    1.91907065   3.92222314   1.56673881
H    0.93374969   2.55226551   1.11350268
C   -0.04131662   3.92724404   2.44530976
N   -0.97323369   4.46756359   2.83809076
C   -2.09431748   3.36254270  -0.40326317
H   -1.27684715   2.69933854  -0.21142288
H   -2.06951378   4.17113521   0.29706677
H   -2.01398483   3.74936024  -1.39765642
C   -3.42218375   2.59656268  -0.25613816
N   -4.41084055   2.02625575  -0.14659690
C    0.64377900  -1.67397561  -3.19936976
H    1.33275141  -1.08229507  -2.63356827
H    1.13111790  -2.56544183  -3.53505990
H   -0.19186004  -1.93444760  -2.58393428
C    0.15346471  -0.86762194  -4.41632731
N   -0.21159656  -0.26725498  -5.32240751
C    3.27368401  -2.28149988  -0.26699226
H    4.19167375  -1.75759231  -0.10051138
H    2.50438956  -1.58185498  -0.51914726
H    3.40053161  -2.97696853  -1.07019344
C    2.87710754  -3.04154718   1.01232600
N    2.58183833  -3.60743693   1.96483660
C   -3.58423497  -1.44910443   0.14619968
H   -2.67135691  -1.05493659   0.54140284
H   -4.06905368  -2.04292309   0.89267761
H   -4.22635406  -0.64266326  -0.14056644
C   -3.27614841  -2.32243047  -1.08424102
N   -3.04676397  -2.97266141  -2.00036004
C   -0.34862332  -4.08853760  -0.13453791
H   -0.05081810  -4.39486294   0.84647025
H   -1.31314032  -4.49458113  -0.35755070
H   -0.39295610  -3.02028197  -0.17653332
C    0.67475114  -4.60074940  -1.16504448
N    1.43669994  -4.98211437  -1.93230346
C    2.50133334  -0.25138943   3.23730569
H    2.36696633  -1.23027411   3.64795210
H    1.79592490  -0.09583829   2.44793767
H    2.34752194   0.48057689   4.00246349
C    3.93135821  -0.11988868   2.68112548
N    4.99607672  -0.02198040   2.26702402
C   -0.39121280  -2.41895463   3.20072580
H   -0.02245678  -1.87940643   4.04796066
H   -0.12923988  -1.89724692   2.30401495
H    0.04275822  -3.39685734   3.18415670
C   -1.92358757  -2.53892115   3.29578150
N   -3.06451025  -2.62824168   3.36655480
C    3.62075036   1.53323168  -0.54491603
H    3.49099006   2.58701887  -0.67756220
H    4.52701715   1.35047918  -0.00623141
H    2.79267114   1.13843489   0.00582838
C    3.69497664   0.84780389  -1.92197057
N    3.75024148   0.33747175  -2.94725027
Cl   0.03763206  -0.01812316   0.01942495
