73
Energy:   -458.06179802
C   -2.29102797   1.40563994  -2.54612237
H   -2.60705901   0.77061356  -1.74501934
H   -1.22767621   1.34680256  -2.64966118
H   -2.75605426   1.08959198  -3.45648676
C   -2.69732164   2.85916044  -2.23984864
N   -2.99982574   3.94137253  -2.01181393
C    2.09469175   1.80215555  -2.86528020
H    1.76535339   1.99715772  -3.86448518
H    2.43313031   2.71294277  -2.41714510
H    1.28283633   1.40351043  -2.29355305
C    3.25006126   0.78439459  -2.89501130
N    4.11028638   0.02662530  -2.91714746
C   -2.46724646  -1.34457689   2.68877037
H   -2.30455219  -2.30712641   3.12686760
H   -1.96205874  -1.29132505   1.74704393
H   -3.51596522  -1.19306375   2.54000271
C   -1.91912522  -0.25393171   3.62773586
N   -1.51102404   0.55810321   4.32683834
C    0.30864951   4.09621216  -0.67753355
H    1.34105661   4.34842929  -0.80172004
H   -0.22597871   4.32987576  -1.57445779
H    0.21936825   3.05006600  -0.47136335
C   -0.27928275   4.90257701   0.49537369
N   -0.71702504   5.50295229   1.36865644
C   -2.66365109   2.47685191   1.34784241
H   -1.71509809   2.13773436   0.98708393
H   -2.62574115   2.57555366   2.41260524
H   -2.89345665   3.42557904   0.90965829
C   -3.75267400   1.45741125   0.96525930
N   -4.56350107   0.69839135   0.68040878
C   -0.14465959  -1.80914529  -3.66644536
H   -0.30029696  -1.51309672  -2.65006333
H    0.77030863  -2.35874873  -3.74173357
H   -0.95840489  -2.42556236  -3.98698814
C   -0.06634332  -0.55703379  -4.55957658
N   -0.00803329   0.37522013  -5.22455336
C    2.69462202  -2.60286306  -1.32840476
H    3.61208321  -2.43805330  -1.85376452
H    2.13623996  -1.69088144  -1.29101372
H    2.12231052  -3.35092412  -1.83610869
C    3.00151776  -3.07598983   0.10462213
N    3.23001559  -3.42825422   1.17157579
C   -3.33214586  -2.12569860  -1.01937294
H   -4.16852841  -1.73708393  -0.47683902
H   -2.44261705  -1.61234464  -0.71919751
H   -3.22771481  -3.17048638  -0.81343184
C   -3.55893983  -1.92014542  -2.52864839
N   -3.72779825  -1.76710173  -3.65237257
C   -0.35790736  -3.89070918   0.75650799
H   -1.29570314  -4.06533446   1.24121951
H   -0.11681871  -2.84963227   0.81067657
H    0.40652854  -4.45963251   1.24319381
C   -0.45538632  -4.31892826  -0.71954291
N   -0.52796384  -4.63775682  -1.81852991
C    0.93514119   2.53825021   2.91966808
H    0.15264360   2.71618215   3.62743777
H    0.60458480   1.82427818   2.19449534
H    1.18710687   3.45490199   2.42858570
C    2.17446683   1.99045294   3.65150829
N    3.09720111   1.58259297   4.19639659
C    1.52302110  -1.49408833   3.47522833
H    1.16940738  -1.06826021   2.55951662
H    2.53495504  -1.81857034   3.35032749
H    1.47739724  -0.75902105   4.25143297
C    0.64119479  -2.69790051   3.85577871
N   -0.01536498  -3.59419339   4.13911578
C    3.73972834   0.40682025   0.81767507
H    4.22344260   0.31100987   1.76727555
H    4.32693373  -0.08036608   0.06751616
H    2.77165528  -0.04668318   0.86315344
C    3.59170587   1.89860828   0.46517285
N    3.48149641   3.00931228   0.20271892
Cl  -0.01117034  -0.05281999  -0.07170998
