73
Energy:   -461.40357807
C   -3.14983950   0.33700621  -2.52882010
H   -3.98840615   0.15223352  -1.89041175
H   -2.24953462   0.04909593  -2.02736433
H   -3.25448155  -0.23218941  -3.42880092
C   -3.08808998   1.83653520  -2.87407333
N   -3.04211465   2.95300270  -3.13113006
C    0.42200945   2.98443568  -2.67677850
H   -0.35517611   3.50114262  -3.20012994
H   -0.01214800   2.31323016  -1.96551937
H    1.01454131   2.43037935  -3.37450816
C    1.31263650   4.00422689  -1.94301468
N    1.97574883   4.76350779  -1.39669417
C   -2.15827530  -0.14816483   3.26343781
H   -3.14539716  -0.19543323   2.85324722
H   -2.10983011  -0.75027655   4.14662162
H   -1.45524888  -0.51300657   2.54403288
C   -1.81911450   1.31155906   3.61808709
N   -1.56659387   2.39838985   3.88213960
C    0.82904457   3.76561708   1.69321359
H    0.14894587   3.89201342   2.50954067
H    0.61042439   2.84951070   1.18542089
H    0.72507245   4.58443216   1.01230922
C    2.27217261   3.72372748   2.22914895
N    3.34664704   3.69253877   2.62817718
C   -2.54028468   3.07347781   0.43793672
H   -2.83022112   3.80335229  -0.28878213
H   -1.67212104   2.55185482   0.09282741
H   -2.31871947   3.56097658   1.36430215
C   -3.69138993   2.07211576   0.64729471
N   -4.54844011   1.32655620   0.80317125
C    0.59811284  -0.58575211  -3.73110912
H    0.88967870   0.11397190  -4.48627522
H    0.87819452  -0.20981920  -2.76927348
H   -0.46220585  -0.72541549  -3.76453807
C    1.30143528  -1.93288551  -3.98044650
N    1.82509081  -2.93588757  -4.16608952
C    3.24382647  -2.12438843  -0.90868856
H    4.07005353  -1.75425766  -0.33837965
H    2.36816937  -1.55372905  -0.67962172
H    3.46333000  -2.03740750  -1.95231282
C    2.99904735  -3.60361312  -0.55715264
N    2.81679817  -4.70496314  -0.29541817
C   -3.54697839  -1.89260837   0.34376393
H   -4.35979454  -1.48710136   0.90926738
H   -3.89170754  -2.16360467  -0.63225959
H   -2.77190404  -1.15998632   0.25760254
C   -2.99650513  -3.14063354   1.05861522
N   -2.58665278  -4.06984501   1.59085450
C   -0.41156690  -3.66688231  -1.39614985
H   -0.77863700  -4.34935578  -0.65832216
H   -0.00995322  -2.80096325  -0.91263177
H    0.35534873  -4.14208950  -1.97140426
C   -1.56507110  -3.24696298  -2.32604006
N   -2.42390741  -2.93431395  -3.01838560
C    1.76741527   0.43575272   3.40301591
H    1.06526213   0.71792967   2.64653900
H    2.19026976   1.31473246   3.84288837
H    1.26843272  -0.13590609   4.15741747
C    2.88756041  -0.41268509   2.77291420
N    3.72155938  -1.04438560   2.30377484
C    0.71725269  -3.24007704   2.16547135
H    1.77505571  -3.40048143   2.15052538
H    0.46653832  -2.45107582   1.48759342
H    0.21615643  -4.13777599   1.86892757
C    0.27685159  -2.85277042   3.58942376
N   -0.05104704  -2.56440304   4.64962105
C    3.53329625   1.54406609  -0.28670870
H    2.57780530   1.31385396   0.13630384
H    3.75958460   2.57587408  -0.11622425
H    4.28292776   0.93394918   0.17232185
C    3.50389382   1.26847906  -1.80156423
N    3.48200237   1.06329199  -2.92944303
Cl  -0.10683558   0.08827780  -0.01328410
