73
Energy:   -458.41636252
C   -3.75231745  -0.39912397  -1.07545282
H   -2.74151712  -0.67450500  -0.85785650
H   -4.05522732  -0.85256792  -1.99606854
H   -4.39131360  -0.73452884  -0.28546131
C   -3.85147393   1.13257417  -1.20062789
N   -3.92530044   2.27299306  -1.29382642
C    2.29112184   2.37098571  -2.46578765
H    1.73513467   2.83776851  -3.25184889
H    1.70018393   1.59737073  -2.02170282
H    3.18899496   1.94860157  -2.86618070
C    2.64957114   3.42051397  -1.39732870
N    2.91645293   4.20193546  -0.60181244
C    2.22023192  -2.56811601   2.10184959
H    1.75389555  -3.28137119   2.74891806
H    3.01255245  -3.04187965   1.56085487
H    1.49681256  -2.18536502   1.41259985
C    2.79224254  -1.41056948   2.94118855
N    3.21813044  -0.54872348   3.56611456
C    2.18685372  -2.74465896  -1.65538876
H    3.06620968  -2.99198801  -1.09819794
H    1.83498565  -3.61381652  -2.17080422
H    1.42796631  -2.39456480  -0.98723978
C    2.51989665  -1.64162477  -2.67715096
N    2.76786224  -0.82036568  -3.43789936
C   -2.78186699   1.89747026   2.08175348
H   -1.85766376   1.69460882   1.58215783
H   -2.58639216   2.41832478   2.99575525
H   -3.40224894   2.50120806   1.45284491
C   -3.50048143   0.57086446   2.39047720
N   -4.03552254  -0.41685386   2.62033605
C   -1.00087554   3.87151498  -0.52698865
H   -1.99523145   4.16690264  -0.26449553
H   -0.29989779   4.38266138   0.09931690
H   -0.89532647   2.81527050  -0.39242976
C   -0.73054156   4.23091195  -1.99986113
N   -0.52926563   4.49849933  -3.09648165
C    4.04987133   0.50706969   0.18221951
H    4.13489472   0.89473347   1.17589350
H    3.01620430   0.38443442  -0.06555492
H    4.50330716   1.18882995  -0.50661863
C    4.76260163  -0.85560079   0.10009358
N    5.29326175  -1.87017090   0.03894709
C   -1.27692189  -3.05988313  -2.65799268
H   -0.98542059  -2.19346844  -2.10188769
H   -1.30743645  -2.82094543  -3.70052648
H   -0.56879518  -3.84479343  -2.49254941
C   -2.67172328  -3.52108104  -2.19601262
N   -3.71021632  -3.86446384  -1.85204747
C   -2.01020828  -2.96066487   1.41553026
H   -2.17003972  -3.25428315   2.43196638
H   -2.92036898  -3.07345960   0.86436427
H   -1.69898634  -1.93739402   1.38459859
C   -0.91814446  -3.84848063   0.79040643
N   -0.10505330  -4.50949981   0.32497333
C    1.66636203   2.52595151   2.11299646
H    1.88981471   1.52671975   2.42364896
H    2.55184351   3.12385215   2.17075865
H    1.30894050   2.51442561   1.10452431
C    0.58474372   3.12015806   3.03420241
N   -0.22057028   3.56257185   3.72008211
C   -0.38485115  -0.18388234   4.00234820
H   -1.24390767   0.29658876   4.42195468
H   -0.40221888  -0.07936367   2.93760725
H    0.50291311   0.26982810   4.39083313
C   -0.40117233  -1.67883684   4.37173236
N   -0.41332418  -2.79189842   4.64675566
C   -0.84586125   0.94521957  -3.51252031
H   -1.17285340   1.29539305  -2.55577852
H   -0.63746062   1.78171919  -4.14634729
H    0.04082313   0.35825220  -3.39352781
C   -1.95134278   0.08209005  -4.14853763
N   -2.77442403  -0.56054911  -4.62208143
Cl   0.03908469   0.02052492  -0.02772889
