73
Energy:   -459.24604694
C   -2.82009858  -1.19270419  -2.36926708
H   -3.73841212  -1.07386759  -1.83309708
H   -2.01206162  -1.29246057  -1.67498757
H   -2.87502771  -2.06892593  -2.98091841
C   -2.58232540   0.04094105  -3.25987549
N   -2.40529246   0.95944600  -3.92297394
C    0.29409279   2.96567345  -3.68639865
H   -0.43693600   2.74218739  -4.43509824
H    0.29551109   2.19210871  -2.94714587
H    1.26137728   3.02766413  -4.13962813
C   -0.04798072   4.31146344  -3.02048949
N   -0.30267000   5.31346526  -2.52468984
C   -2.24745420   1.76765588   2.86678546
H   -2.00761324   2.68680937   3.35926222
H   -3.22366085   1.83879124   2.43451306
H   -1.52933426   1.57770906   2.09664064
C   -2.22119391   0.61575960   3.88857084
N   -2.20164192  -0.24187953   4.64933650
C    1.54830539   3.50402077   0.07764216
H    1.64263433   4.35418008  -0.56518859
H    1.07449787   2.70555341  -0.45419936
H    2.51943359   3.19105397   0.39991671
C    0.69677069   3.88006192   1.30445988
N    0.06276439   4.16004165   2.21788143
C   -2.34994477   2.79938901  -0.82734441
H   -2.61099105   3.56551437  -1.52720651
H   -1.61062778   2.15808775  -1.25982813
H   -1.95764384   3.24713657   0.06176818
C   -3.60291940   1.97531237  -0.47726975
N   -4.53581597   1.36174985  -0.21662325
C    1.10779902  -0.70068375  -3.67984660
H    1.17034291   0.08652633  -4.40184987
H    2.08581816  -1.09309644  -3.49440140
H    0.69867436  -0.31717350  -2.76856399
C    0.19899814  -1.82086695  -4.21917078
N   -0.47764542  -2.65489426  -4.62072214
C    3.16168177  -2.20211271   1.59324555
H    2.34063851  -1.65595458   1.17791502
H    3.09812553  -3.22648243   1.29071229
H    4.08206313  -1.78332996   1.24336236
C    3.11018253  -2.11657946   3.13000574
N    3.07183900  -2.05289606   4.27419356
C   -3.49605687  -1.51800293   1.32394916
H   -2.70763671  -0.86380548   1.01521056
H   -3.50077476  -1.59192054   2.39138207
H   -4.43463021  -1.12816925   0.98927186
C   -3.27315792  -2.91424370   0.71368055
N   -3.10719951  -3.95380841   0.25930782
C    0.08356840  -3.69079894  -1.02678813
H    0.00563346  -4.61810278  -0.49864618
H   -0.50854422  -3.73641696  -1.91685596
H   -0.26893059  -2.89508750  -0.40430370
C    1.55527364  -3.43574796  -1.40179835
N    2.65102509  -3.24585090  -1.68101050
C    1.39781248   0.98814033   3.53155413
H    1.58720260   0.44565842   4.43418636
H    0.79306380   0.39411272   2.87863046
H    0.88483986   1.89811868   3.76328152
C    2.73391780   1.31417647   2.83864503
N    3.72870894   1.55692519   2.32274271
C   -0.44470827  -2.66920594   3.06344757
H    0.10378753  -2.25546037   3.88373236
H   -1.44083865  -2.89835114   3.37985843
H   -0.47898066  -1.95969646   2.26324710
C    0.24887875  -3.95605801   2.57914521
N    0.76528581  -4.91417788   2.21856008
C    3.59448871   0.34470528  -0.89208241
H    2.81808519   0.57411674  -0.19246242
H    4.54542280   0.42235873  -0.40773398
H    3.46126177  -0.65165772  -1.25870274
C    3.53504227   1.33678099  -2.06845476
N    3.49078169   2.07542645  -2.94431744
Cl  -0.04688147   0.01164812   0.08389659
