73
Energy:   -458.11213280
C   -2.98219631   0.03928725  -2.49758949
H   -3.81657490   0.11745427  -1.83230574
H   -2.14603066  -0.37479024  -1.97388545
H   -3.23918636  -0.59666688  -3.31881878
C   -2.61489412   1.43804830  -3.02688775
N   -2.34142095   2.47948947  -3.42097437
C    0.53513773   3.39905212  -1.95307497
H   -0.21189496   4.09987195  -1.64373067
H    0.38146811   2.46802667  -1.44861848
H    0.46624698   3.24762267  -3.01006233
C    1.93062940   3.94832231  -1.60306748
N    2.96963639   4.35727893  -1.34247099
C   -2.12612108  -0.03155079   3.29866846
H   -3.13005109  -0.01122172   2.92905862
H   -2.08739028  -0.61642854   4.19383160
H   -1.48328237  -0.46505422   2.56128643
C   -1.66216209   1.40490072   3.60354404
N   -1.31672353   2.47440416   3.83053777
C    1.27508167   3.45385849   1.92322080
H    1.22331357   3.40979587   2.99105915
H    2.29101720   3.60055230   1.62113634
H    0.90900770   2.53715209   1.51025794
C    0.41427266   4.62552031   1.41546455
N   -0.22663878   5.49787580   1.03741694
C   -2.46752239   2.89526081   0.37862268
H   -1.55023909   2.34449774   0.39093437
H   -2.46098410   3.61673197   1.16877185
H   -2.57001990   3.39646470  -0.56115815
C   -3.64961719   1.92820811   0.57626115
N   -4.52974050   1.20819342   0.72341197
C    0.76759390   0.23418876  -3.85886029
H    1.66168606   0.73485172  -4.16681484
H    0.63602774   0.35574613  -2.80396065
H   -0.07143571   0.65366373  -4.37361184
C    0.87770211  -1.26507642  -4.19304601
N    0.95968267  -2.38134749  -4.44186247
C    2.80832724  -2.40736849  -1.42858531
H    2.01106337  -1.69377486  -1.43597642
H    2.42495357  -3.37314421  -1.68393016
H    3.55190190  -2.11880178  -2.14183497
C    3.43737220  -2.45973526  -0.02389312
N    3.90572477  -2.49872470   1.02196407
C   -3.54166153  -2.01968246   0.54838244
H   -2.70749616  -1.35726290   0.44704816
H   -4.19763184  -1.65322562   1.31016420
H   -4.06923823  -2.07360736  -0.38094744
C   -3.03881227  -3.42288632   0.93537281
N   -2.66441813  -4.46763538   1.22350472
C   -0.68959854  -3.67948421  -1.75651563
H   -0.76887691  -4.37270668  -0.94530805
H   -0.34221202  -2.73705748  -1.38766124
H    0.00206689  -4.05583630  -2.48098587
C   -2.07095749  -3.49648607  -2.41222832
N   -3.09944202  -3.36023564  -2.90043622
C    1.90324470  -0.18495756   3.18273406
H    1.74944320  -0.73662630   4.08656307
H    2.15092830  -0.86018022   2.39050538
H    1.00862428   0.34591955   2.93228869
C    3.05571137   0.81678451   3.38256750
N    3.91377519   1.56262702   3.53135258
C    0.54197779  -3.54757275   1.97720338
H    0.34667090  -2.77353587   1.26472720
H    0.06924660  -4.45309169   1.65867587
H    1.59772211  -3.70408387   2.05340890
C   -0.01603038  -3.13307714   3.35140143
N   -0.43149282  -2.82446632   4.37455434
C    3.70718977   1.20867444  -0.05201463
H    4.05395358   2.19999364   0.15278108
H    4.28459223   0.50541899   0.51095718
H    2.67684085   1.12693802   0.22475123
C    3.86001369   0.91171679  -1.55536456
N    3.97379804   0.69061832  -2.67467692
Cl  -0.01165176  -0.12762831   0.01676667
