73
Energy:   -459.09819080
C   -1.68143001  -2.75374424  -2.14964521
H   -2.36319212  -3.44366337  -1.69785742
H   -1.07744976  -2.30086451  -1.39135312
H   -1.05350775  -3.27450069  -2.84205076
C   -2.47322236  -1.66308276  -2.89471058
N   -3.06274775  -0.85103571  -3.44944562
C    1.59123083   3.20675009  -1.93655105
H    0.98650884   4.07451042  -2.09842605
H    1.01824974   2.46355423  -1.42249690
H    1.91641477   2.81779709  -2.87881962
C    2.81822329   3.58727265  -1.08726188
N    3.73177495   3.87058898  -0.45492749
C   -2.10536041   2.90861079   1.63396795
H   -1.67002972   1.93987539   1.50381762
H   -3.13227829   2.88129883   1.33464739
H   -2.04137597   3.19299702   2.66349675
C   -1.34600547   3.93287263   0.77033159
N   -0.78063121   4.69548213   0.12731506
C    1.73061510   2.83045977   2.13444583
H    1.57963257   3.87839800   1.97975288
H    1.39378415   2.29075587   1.27411815
H    2.77179826   2.63930182   2.29031554
C    0.93417502   2.37410598   3.37098309
N    0.34118917   2.03432984   4.29164129
C   -2.29299478   2.34992609  -2.35041328
H   -1.63298342   1.71448888  -1.79768845
H   -3.11437093   1.77382892  -2.72237074
H   -2.66133323   3.12444712  -1.71061406
C   -1.53061671   2.97889975  -3.53141786
N   -0.96299159   3.44719923  -4.41072946
C    0.58380881   0.09989567  -3.96297403
H   -0.32800108   0.50213860  -4.35246541
H    1.40873693   0.68841612  -4.30653823
H    0.55357536   0.11811226  -2.89355681
C    0.75236746  -1.35228384  -4.44708422
N    0.87786703  -2.43349748  -4.80752625
C    2.05040085  -2.89681686  -1.56064216
H    1.36351114  -2.07988148  -1.48514841
H    1.51494581  -3.79224073  -1.79813549
H    2.76389324  -2.69282154  -2.33149468
C    2.78276917  -3.07745318  -0.21803009
N    3.32805066  -3.21194513   0.78160562
C   -3.87301727  -0.22017090   0.04469406
H   -2.91127535   0.22991908  -0.08710757
H   -4.45329329   0.37033973   0.72254067
H   -4.37367628  -0.27473538  -0.89937286
C   -3.70146798  -1.63932836   0.61754914
N   -3.57374173  -2.69595560   1.04406579
C   -0.35268721  -3.63950071   1.63877881
H    0.54038404  -3.75465800   2.21676041
H   -1.20572666  -3.79740684   2.26510815
H   -0.38819514  -2.65119056   1.23026771
C   -0.35919819  -4.66892317   0.49341992
N   -0.36404592  -5.43537499  -0.35935185
C   -1.75784306  -0.65522012   3.61194662
H   -1.22599050  -0.40699720   4.50660768
H   -1.15135940  -0.42510082   2.76099317
H   -1.98942064  -1.69985884   3.61287910
C   -3.06290001   0.15982496   3.54769812
N   -4.03457423   0.76666308   3.49986219
C    2.20599012  -1.01746690   3.22533679
H    2.46345954  -0.09397874   3.70049918
H    1.57469025  -0.82175575   2.38387573
H    3.09711641  -1.50963173   2.89584203
C    1.46146946  -1.91992941   4.22676098
N    0.90713999  -2.59185377   4.97236681
C    3.86737400   0.30664690   0.01208681
H    2.87827261   0.27557155   0.41904249
H    4.34997031   1.21185840   0.31637623
H    4.42643681  -0.53297652   0.36899070
C    3.79173006   0.25697429  -1.52525200
N    3.73540970   0.21999078  -2.66987063
Cl  -0.00403103   0.06174286   0.04054217
