73
Energy:   -460.95302259
C    1.26749130   3.69216536  -0.91430496
H    2.16856271   4.05740081  -1.36104153
H    1.36654052   2.64536342  -0.71607767
H    1.08732885   4.21332980   0.00266190
C    0.08736238   3.92302480  -1.87638586
N   -0.79129724   4.09491015  -2.59269882
C    2.00199092   2.22773783   2.45617935
H    2.78305504   1.61059216   2.06378893
H    2.29640750   3.25486478   2.39936199
H    1.10966526   2.08033222   1.88440527
C    1.73838411   1.84982450   3.92563264
N    1.54211686   1.56845085   5.01970741
C   -1.68013904   0.74061168   3.66733080
H   -1.14858997   0.64605965   2.74352579
H   -1.70578880  -0.20745588   4.16271861
H   -1.18630931   1.45586958   4.29138001
C   -3.11900409   1.21176863   3.38576642
N   -4.19030452   1.56256639   3.17612894
C   -2.55991810   3.04355062   0.36170840
H   -2.18895867   2.08565274   0.06217386
H   -2.66761918   3.66951184  -0.49937936
H   -3.51089706   2.92487358   0.83758009
C   -1.57011275   3.69209864   1.34723913
N   -0.83315768   4.17497213   2.08101156
C   -2.53554009   1.10046427  -3.00504634
H   -2.64999284   2.16432476  -3.00377824
H   -1.90113258   0.80902315  -2.19418983
H   -3.49400962   0.63848907  -2.89184671
C   -1.90440548   0.65365594  -4.33682388
N   -1.43449708   0.32098683  -5.32839280
C   -0.68402630  -2.39604389  -3.07893698
H   -0.08921552  -2.15873339  -3.93613244
H   -0.48034009  -1.69360412  -2.29791881
H   -1.72063115  -2.34860619  -3.33989513
C   -0.34132838  -3.81685913  -2.59371313
N   -0.08617420  -4.87472066  -2.23244192
C    1.55660243   0.90803905  -3.49448109
H    1.13089019   1.01690039  -4.47009294
H    2.22569788   1.72114011  -3.30454153
H    0.77612642   0.90994951  -2.76252984
C    2.32961597  -0.42164962  -3.41716282
N    2.90515968  -1.41166328  -3.35959585
C   -3.83148703  -0.57452648   0.49548522
H   -2.80654611  -0.36344982   0.71874056
H   -4.26381636  -1.13325802   1.29910797
H   -4.36604428   0.34407093   0.37168524
C   -3.91504202  -1.39625838  -0.80427446
N   -3.97725251  -2.00807513  -1.77200463
C   -1.36617231  -3.51589879   0.75702840
H   -2.15711077  -3.67336240   0.05380599
H   -0.83752551  -4.43342387   0.91058416
H   -0.69323143  -2.77581582   0.37712465
C   -1.95720129  -3.03388406   2.09491724
N   -2.39724922  -2.67500218   3.09103629
C    4.02845616   0.21118852  -0.34290345
H    4.30403392  -0.59707666  -0.98762392
H    2.99506188   0.12154991  -0.08030060
H    4.62593075   0.17947111   0.54418010
C    4.25922913   1.54915052  -1.06967820
N    4.43105009   2.54532404  -1.61079504
C    2.47359603  -3.13061422  -0.41439047
H    1.79938600  -2.29977412  -0.42115369
H    2.38762571  -3.66721565  -1.33611012
H    3.47644056  -2.77523643  -0.30077463
C    2.12434039  -4.06557799   0.75841098
N    1.86430370  -4.76170101   1.63161498
C    1.14804088  -1.68276803   3.31958973
H    0.90058850  -1.18752533   4.23523277
H    1.00219456  -2.73665428   3.43339534
H    0.51804572  -1.31815323   2.53533133
C    2.62082170  -1.40351116   2.96669844
N    3.71737396  -1.19559173   2.70395484
Cl  -0.00744905   0.11443071  -0.01880764
