73
Energy:   -458.66283588
C    0.36702731   1.21609497  -3.90888590
H   -0.54751154   1.35487322  -4.44671438
H    0.90010979   2.14288320  -3.86662793
H    0.14957716   0.88408307  -2.91521462
C    1.22900651   0.16032286  -4.62577996
N    1.87078922  -0.62574747  -5.15954016
C    1.07654298   3.65888373  -1.25290484
H    1.00424849   2.61209066  -1.04338646
H    2.10426557   3.92621725  -1.38412282
H    0.53298850   3.88201375  -2.14714228
C    0.48375181   4.45958382  -0.07856332
N    0.04239183   5.05574142   0.79578732
C   -0.54947646   2.55638141   3.09478706
H   -0.37393173   3.61098192   3.05117517
H   -0.16478008   2.09387785   2.20991517
H   -0.05798002   2.14818807   3.95310433
C   -2.06319499   2.29169722   3.19577455
N   -3.19022725   2.09462781   3.27096432
C    3.19724040   1.87497642   1.33583567
H    3.09549688   2.93664418   1.24975430
H    2.53987334   1.39613401   0.64051014
H    4.20763812   1.59502172   1.12224514
C    2.83557412   1.43906831   2.76789070
N    2.56629714   1.11451490   3.83412077
C   -2.71544072   2.82327996  -0.19053726
H   -2.54562179   3.74517558   0.32537957
H   -2.05531274   2.07334664   0.19251647
H   -3.72937944   2.51429987  -0.04439114
C   -2.45062962   3.02048348  -1.69472670
N   -2.25346572   3.16731046  -2.81466410
C    0.10146248  -2.70180990  -2.79738235
H    0.42852032  -2.62995735  -3.81363554
H    0.04931818  -1.72252128  -2.36939420
H   -0.86637261  -3.15697848  -2.76550933
C    1.09875331  -3.55956646  -1.99659231
N    1.84128167  -4.19820521  -1.40036774
C    2.63869716  -2.21739019   1.70685703
H    2.65922537  -2.88070004   2.54620131
H    2.34804720  -2.75917022   0.83113100
H    1.93556146  -1.43194409   1.89008830
C    4.03946282  -1.61341579   1.49550313
N    5.08239653  -1.16372939   1.33814054
C   -3.07895461  -0.50747114  -2.43102981
H   -3.63862213   0.40337234  -2.38590113
H   -2.22027787  -0.43024592  -1.79730305
H   -3.69282732  -1.31993453  -2.10245314
C   -2.62578575  -0.76021198  -3.88098156
N   -2.28838094  -0.94838902  -4.96053654
C   -0.85033381  -3.63679688   1.05848024
H   -0.38108757  -2.67702891   1.11809231
H   -0.13045220  -4.36747107   0.75387428
H   -1.24353281  -3.90176461   2.01769124
C   -1.99587839  -3.58516513   0.03053969
N   -2.84878839  -3.54672294  -0.73480878
C   -0.32637140  -0.94185135   4.02535953
H   -1.31775910  -0.84219050   4.41538302
H   -0.33006468  -0.71537077   2.97961004
H    0.32701682  -0.26464877   4.53465276
C    0.16541164  -2.38591927   4.23611364
N    0.53156647  -3.46109347   4.39302965
C   -3.66679289  -0.63986697   1.30643005
H   -2.70360349  -0.23540769   1.07495858
H   -4.33349291   0.15469024   1.56927793
H   -4.04994022  -1.15937014   0.45307568
C   -3.54207002  -1.61785995   2.48946595
N   -3.44920818  -2.34602017   3.37028996
C    3.40041383  -0.76710083  -1.87123768
H    4.27419725  -1.17482036  -1.40737616
H    3.23594136  -1.25229223  -2.81061897
H    2.55360786  -0.92323848  -1.23606858
C    3.59830423   0.74274762  -2.10101377
N    3.74564263   1.86689842  -2.27209252
Cl   0.01990163   0.05288257   0.03349852
