73
Energy:   -458.17738481
C    0.02957497   4.08678295  -0.28372849
H    0.38793749   4.27218964  -1.27473851
H    0.10068774   3.04105601  -0.06856061
H    0.62131820   4.63639176   0.41817549
C   -1.44021891   4.53397599  -0.17731264
N   -2.53454726   4.86693153  -0.09808119
C   -1.18840687  -0.95753701  -3.71107186
H   -2.19024591  -0.66855173  -3.95129308
H   -0.51519672  -0.54420020  -4.43276422
H   -0.93565510  -0.59261857  -2.73749590
C   -1.07920036  -2.49356832  -3.72785701
N   -0.99789115  -3.63721346  -3.74035432
C   -2.89738594   1.83940729   1.62987348
H   -1.88560405   1.93859845   1.29616897
H   -3.26002300   2.79145279   1.95698633
H   -3.50535872   1.48371758   0.82442142
C   -2.95664303   0.83833783   2.79861149
N   -3.00076263   0.09299612   3.66879006
C    3.14231313   2.12442258   1.33296370
H    2.22844488   1.64851798   1.04441592
H    3.08658675   2.40884223   2.36296327
H    3.95742556   1.44530498   1.19407491
C    3.36465240   3.37744167   0.46572185
N    3.53019409   4.31037133  -0.17997912
C   -2.75841092   1.92997972  -2.19611981
H   -3.29982112   2.70226425  -1.69079638
H   -2.30181579   1.28429568  -1.47534793
H   -3.43061137   1.36409212  -2.80670714
C   -1.66887253   2.56222586  -3.08199277
N   -0.85766167   3.03296186  -3.74156546
C    2.25667411  -2.44085535  -2.26401867
H    1.60084779  -1.87109436  -1.63938723
H    3.24243541  -2.43212141  -1.84796883
H    1.90426197  -3.44930391  -2.32514374
C    2.28902446  -1.82204241  -3.67384987
N    2.31311077  -1.36130806  -4.72353328
C    3.15735881  -1.69470816   1.25431465
H    2.15904089  -1.72237868   0.87026275
H    3.57730291  -2.67848419   1.22728188
H    3.75173783  -1.03660597   0.65555413
C    3.13432324  -1.18615553   2.70773943
N    3.11717221  -0.80751498   3.78988024
C   -3.49585270  -1.86391020   0.46456374
H   -2.50021218  -1.51946504   0.65153340
H   -3.52743244  -2.92962296   0.55488611
H   -4.16433629  -1.42571155   1.17590805
C   -3.92126366  -1.45650181  -0.95833609
N   -4.23800146  -1.15316775  -2.01774968
C   -0.57871702  -4.00731138  -0.33247658
H   -0.53048245  -4.52620912  -1.26699182
H   -0.58553541  -2.95221419  -0.51030385
H   -1.47215039  -4.28751091   0.18536908
C    0.64755298  -4.37576052   0.52315600
N    1.56056673  -4.65008766   1.16021335
C   -0.41848054  -2.24907153   3.35834615
H   -0.32668749  -1.60188159   2.51122196
H    0.51796188  -2.73382258   3.53998072
H   -0.69537947  -1.67473826   4.21762920
C   -1.49984542  -3.30947459   3.07942797
N   -2.30497073  -4.09899286   2.87176071
C    0.42865850   1.29172553   3.76479976
H    0.49727378   0.70296437   2.87398416
H   -0.38844386   0.94268161   4.36096347
H    1.33864977   1.20460756   4.32088019
C    0.19621279   2.76685116   3.38853742
N    0.02314639   3.86514925   3.10839300
C    2.13604898   1.72636833  -2.66711858
H    1.23805838   1.46447066  -2.14757774
H    2.04768465   1.44573926  -3.69587422
H    2.29315584   2.78249500  -2.59774296
C    3.32954840   0.98716705  -2.03407783
N    4.21816298   0.43679810  -1.56275022
Cl  -0.07298306  -0.01785930   0.03091325
