73
Energy:   -462.62340214
C   -2.47745018  -0.66155749  -3.09079490
H   -3.53385720  -0.70910147  -2.92756513
H   -1.98928621  -0.36973511  -2.18446454
H   -2.11989803  -1.62312313  -3.39484600
C   -2.17421224   0.37080176  -4.19255764
N   -1.94843781   1.13944015  -5.01287007
C   -1.12762526   3.09673756  -2.11774217
H   -1.47881355   3.13904166  -3.12758241
H   -1.74475235   3.71449319  -1.49933193
H   -1.16955297   2.08653101  -1.76756522
C    0.32637220   3.60068810  -2.05836848
N    1.40893940   3.97590219  -2.01416207
C   -1.43366404  -0.49275836   3.61219614
H   -2.44355279  -0.65282940   3.92747723
H   -0.78552421  -1.16251812   4.13777744
H   -1.35560485  -0.67282940   2.56035001
C   -1.02536220   0.96074795   3.91585553
N   -0.72136292   2.04294946   4.14194375
C    0.67512429   3.64895473   1.53551180
H    0.90548078   3.75658261   2.57486367
H    1.52713960   3.92648754   0.95075156
H    0.41834208   2.63061771   1.33069066
C   -0.51310966   4.56025695   1.17602838
N   -1.39780385   5.23876287   0.90837663
C   -3.10840335   2.09158262   1.14423572
H   -3.21277439   3.15079665   1.25411069
H   -2.07018613   1.83983110   1.08402560
H   -3.54609755   1.60060845   1.98819499
C   -3.82249260   1.63607519  -0.14191727
N   -4.35416451   1.29692921  -1.09951663
C    1.43366012   0.49275161  -3.61219825
H    2.44354689   0.65282249  -3.92748573
H    1.35560815   0.67282019  -2.56035116
H    0.78551737   1.16251324  -4.13777358
C    1.02535490  -0.96075358  -3.91585841
N    0.72135311  -2.04295427  -4.14194721
C    3.10840304  -2.09157058  -1.14424187
H    3.54608643  -1.60057842  -1.98819693
H    2.07018249  -1.83983501  -1.08402251
H    3.21278795  -3.15078115  -1.25413208
C    3.82249268  -1.63607105   0.14191371
N    4.35416487  -1.29693095   1.09951500
C    1.12763180  -3.09673845   2.11774044
H    1.74475879  -3.71449467   1.49932981
H    1.47882104  -3.13904144   3.12757986
H    1.16955852  -2.08653186   1.76756348
C   -0.32636545  -3.60068980   2.05836852
N   -1.40893250  -3.97590450   2.01416343
C   -0.67512313  -3.64895647  -1.53550711
H   -1.52713884  -3.92650580  -0.95075437
H   -0.90547379  -3.75657179  -2.57486105
H   -0.41835118  -2.63061980  -1.33067138
C    0.51311777  -4.56025248  -1.17603093
N    1.39781714  -5.23875379  -0.90838458
C    2.47744965   0.66154938   3.09079912
H    2.11988321   1.62311367   3.39483949
H    1.98930334   0.36971661   2.18446259
H    3.53385821   0.70910279   2.92758543
C    2.17420463  -0.37080654   4.19256303
N    1.94842492  -1.13944245   5.01287634
C   -3.50556903  -1.92527590   0.36432628
H   -2.49052880  -1.58711106   0.37975546
H   -3.97875257  -1.59243734  -0.53579311
H   -3.52597899  -2.99435521   0.40372093
C   -4.25606385  -1.35234312   1.58092217
N   -4.81484135  -0.92576863   2.48673312
C    3.50556747   1.92527548  -0.36432190
H    3.52598671   2.99435582  -0.40369798
H    3.97874540   1.59241642   0.53579286
H    2.49052486   1.58711979  -0.37975934
C    4.25606044   1.35235760  -1.58092595
N    4.81483656   0.92579420  -2.48674296
Cl   0.00000148   0.00000061   0.00000198
