73
Energy:   -458.07381916
C   -2.71295046  -0.22299865  -2.48300575
H   -3.01572207  -0.13079056  -1.46088678
H   -1.76471025  -0.71639275  -2.53098352
H   -3.44027546  -0.79510015  -3.02021828
C   -2.59513820   1.17781029  -3.11185754
N   -2.50742162   2.22077623  -3.58006629
C    0.19094218   3.48048005  -2.00893728
H    0.05550143   3.36291088  -3.06379911
H   -0.49938372   4.20993127  -1.63981650
H    0.01616535   2.54469368  -1.52041295
C    1.63097943   3.94666097  -1.72509214
N    2.70315262   4.29375385  -1.51375653
C   -2.08819418  -0.04271758   3.32924310
H   -3.10810467  -0.10678061   3.01210166
H   -1.95864301  -0.60593944   4.22974114
H   -1.45175165  -0.43916741   2.56591647
C   -1.72274314   1.43069776   3.58826585
N   -1.45064824   2.52772245   3.78112006
C    1.10098438   3.52315874   1.83608326
H    1.07488427   3.48483459   2.90507822
H    2.10146463   3.71790777   1.51048968
H    0.77219310   2.58619735   1.43746222
C    0.17181738   4.64654987   1.33985643
N   -0.51998969   5.48296562   0.97039299
C   -2.67065925   2.76600675   0.32037176
H   -1.71401554   2.29233343   0.39362873
H   -2.72980054   3.56239422   1.03252933
H   -2.79916782   3.15956389  -0.66628797
C   -3.77743749   1.73510968   0.61001491
N   -4.60148421   0.96755996   0.82566739
C    1.01516910   0.42316947  -3.77871511
H    1.92202862   0.81343818  -4.19126369
H    1.02773289   0.54030747  -2.71522090
H    0.18041603   0.95424829  -4.18619725
C    0.89330703  -1.07147606  -4.12912116
N    0.80257518  -2.18430759  -4.39001439
C    2.82791879  -2.35836059  -1.42684313
H    1.98865445  -1.69467120  -1.43405016
H    2.49592442  -3.35538959  -1.62836731
H    3.52761802  -2.05673704  -2.17807100
C    3.50661315  -2.31271309  -0.04521717
N    4.01193195  -2.27872645   0.98346615
C   -3.43649128  -2.21084008   0.68366796
H   -2.62824567  -1.51833732   0.57376281
H   -4.08776910  -1.87786334   1.46460508
H   -3.98230280  -2.27064988  -0.23470651
C   -2.87684599  -3.60068505   1.03965689
N   -2.46016464  -4.63548780   1.30470684
C   -0.63009383  -3.74284321  -1.74057585
H    0.05476498  -4.04867507  -2.50368493
H   -0.59482332  -4.43982871  -0.92948627
H   -0.35890582  -2.77005937  -1.38695493
C   -2.05685225  -3.69961733  -2.31858270
N   -3.11913875  -3.66743369  -2.74893508
C    1.89483875  -0.05222014   3.14782123
H    2.20506298  -0.72128412   2.37256998
H    0.98209607   0.42702476   2.86124799
H    1.74020431  -0.60197814   4.05267118
C    2.98457483   1.01221986   3.37374762
N    3.79593288   1.80474383   3.54196009
C    0.69773894  -3.47833601   1.96487717
H    0.46463288  -2.71654595   1.25056796
H    0.26984395  -4.40669412   1.64871868
H    1.75989445  -3.58278595   2.04113313
C    0.12037536  -3.08827202   3.33823124
N   -0.30949807  -2.79785165   4.36075576
C    3.67956447   1.35099694  -0.06500427
H    3.97061362   2.36723857   0.10065664
H    4.22152459   0.71179614   0.60027810
H    2.63015003   1.24652738   0.11586735
C    3.99102667   0.95869740  -1.52126399
N    4.22292444   0.66661255  -2.60551554
Cl  -0.03436591  -0.09648243  -0.02602106
