73
Energy:   -463.83359455
C   -2.69949403  -0.26186464  -2.81547915
H   -2.86900565  -1.00352458  -3.56787966
H   -3.59656364  -0.11484064  -2.25107756
H   -1.91693849  -0.58826845  -2.16281809
C   -2.29070865   1.06374646  -3.48424648
N   -1.98634935   2.05072418  -3.98217415
C    0.84898182   3.08674942  -2.49182613
H    0.07730051   3.54702533  -3.07282030
H    0.45069003   2.23549517  -1.98032936
H    1.64371294   2.77547855  -3.13712605
C    1.38905071   4.09746514  -1.46305048
N    1.79115656   4.84998893  -0.69708025
C   -2.02701179   0.73157931   3.38601157
H   -1.57348346   0.33630088   2.50115723
H   -2.90845111   0.17036467   3.61623306
H   -1.33747506   0.66307107   4.20133041
C   -2.40355794   2.20681762   3.15474346
N   -2.68391366   3.30519959   2.98255384
C    0.88994665   3.25982290   2.16576572
H    1.76947451   3.82774858   1.94487807
H    0.03621019   3.90468455   2.15210553
H    0.76804157   2.49107305   1.43155736
C    1.02827877   2.62073971   3.56005296
N    1.13127332   2.14491323   4.59816319
C   -2.22193485   3.23672096  -0.40552128
H   -1.46772402   2.56094505  -0.05998818
H   -2.30668836   4.05605908   0.27741429
H   -1.95399221   3.60553012  -1.37355312
C   -3.57109246   2.49928790  -0.49250528
N   -4.57560163   1.95023547  -0.55726883
C    1.26410225  -0.36544240  -3.77291463
H    1.81501707   0.44894613  -4.19500983
H    0.96605204  -0.11576411  -2.77605661
H    0.39530193  -0.55480783  -4.36808337
C    2.15059082  -1.62436077  -3.74354531
N    2.81062186  -2.56168271  -3.72167851
C    3.34351979  -1.99884904  -0.32897518
H    4.01621628  -1.35827051   0.20209805
H    2.49323535  -1.43473431  -0.65098455
H    3.84173988  -2.41103680  -1.18148739
C    2.88204838  -3.13946654   0.59711113
N    2.53846194  -3.98870812   1.28662447
C   -3.75282832  -1.12437439   0.64363853
H   -2.91051121  -0.49140868   0.45720762
H   -3.86972188  -1.26108064   1.69841168
H   -4.63527651  -0.67105635   0.24278063
C   -3.52682983  -2.49105854  -0.02919064
N   -3.35856368  -3.50861702  -0.53014255
C   -0.13557970  -3.59591265  -1.73707046
H   -0.69977934  -4.36366243  -1.25010104
H   -0.16271295  -2.70418778  -1.14631702
H    0.87864007  -3.91697081  -1.85187035
C   -0.74422177  -3.31225986  -3.12296221
N   -1.19738345  -3.10106746  -4.15482161
C    1.59739995  -1.04451627   3.45471952
H    1.52858792  -2.11229320   3.45053497
H    0.92064825  -0.64065726   2.73097639
H    1.34333743  -0.67453999   4.42604278
C    3.03611705  -0.62145929   3.10441122
N    4.10730732  -0.30647414   2.84359077
C   -0.73164867  -3.49862289   1.91893416
H   -0.32836700  -2.66483038   1.38315982
H   -1.25524059  -4.13913510   1.24033656
H    0.06420630  -4.04381019   2.38184318
C   -1.70392981  -2.99213894   3.00048092
N   -2.42783731  -2.61503862   3.80574164
C    3.59413528   1.68140735   0.13115076
H    2.72655342   1.13710126   0.44088094
H    3.45339963   2.72247344   0.33431072
H    4.44877697   1.32564987   0.66773560
C    3.81531398   1.47846877  -1.37931139
N    3.97999158   1.32737177  -2.50391912
Cl  -0.00502189   0.01760885   0.02449739
