73
Energy:   -459.88970195
C   -1.37879701  -0.41832932  -3.60934012
H   -1.94530102  -1.30881518  -3.78543187
H   -0.71556924  -0.57482087  -2.78439260
H   -0.81028933  -0.17856130  -4.48353083
C   -2.33623470   0.74345087  -3.28502565
N   -3.04909058   1.60844902  -3.04355879
C    0.27161917   3.07437012  -2.37287054
H    0.98325842   3.83028828  -2.11391592
H    0.41930456   2.21705926  -1.74988884
H   -0.71887846   3.45293714  -2.22969042
C    0.46041057   2.67544557  -3.84827456
N    0.60097435   2.37842812  -4.94677992
C   -2.55300328   0.60541924   3.19272893
H   -3.57004456   0.58730901   2.86076623
H   -2.47567587   0.10061112   4.13298865
H   -1.93373092   0.11366951   2.47190784
C   -2.09180624   2.06578536   3.35467978
N   -1.74842407   3.15309431   3.47525955
C    0.79923914   3.62714350   1.32991964
H    0.34270850   2.68516873   1.10819123
H    1.23050724   4.03303699   0.43876456
H    0.05960768   4.30186373   1.70753983
C    1.90011666   3.42760668   2.38815106
N    2.71977002   3.27904245   3.17605245
C   -2.75548244   3.09653822  -0.03602430
H   -2.95166353   3.53959491  -0.99002322
H   -2.07699649   2.27786344  -0.15572183
H   -2.32158296   3.82723758   0.61413628
C   -4.07413415   2.58548575   0.57355182
N   -5.05593028   2.20498395   1.02740895
C    2.51235216  -0.14010373  -3.07560593
H    2.59693793   0.89174931  -3.34583681
H    1.80997547  -0.24269849  -2.27495595
H    2.17502463  -0.70354209  -3.92038190
C    3.88701119  -0.66661189  -2.62316621
N    4.91050733  -1.05862115  -2.28630428
C    2.90519771  -2.92952569   0.00255466
H    3.62875338  -2.70911880   0.75938236
H    2.17227468  -2.15055316  -0.02785442
H    3.39246769  -2.99807058  -0.94758673
C    2.21737397  -4.26923398   0.32454877
N    1.70525794  -5.26670770   0.56428802
C   -3.72799748  -0.84874228  -0.18966859
H   -3.19189853  -1.32360714   0.60531661
H   -4.68847566  -0.53701786   0.16417973
H   -3.17923445   0.00437028  -0.53019348
C   -3.90701746  -1.84178814  -1.35303086
N   -4.04030598  -2.58115591  -2.21920696
C   -0.73111429  -3.61578488  -1.64616581
H   -0.49864833  -4.40368265  -0.96054430
H   -1.61953504  -3.86497909  -2.18793135
H   -0.88690331  -2.70616810  -1.10466217
C    0.43719207  -3.43231555  -2.63257305
N    1.30704926  -3.29571429  -3.36699808
C    1.12551730   0.20137248   3.79425345
H    0.71364043   0.57264574   2.87915030
H    1.64414299   0.99020550   4.29790904
H    0.33654192  -0.16245739   4.41878910
C    2.10741530  -0.94467235   3.48756537
N    2.83848299  -1.79795481   3.25922216
C   -0.61274943  -3.11362942   2.10037037
H    0.29815914  -2.60440654   1.86407008
H   -1.36537796  -2.84734854   1.38794924
H   -0.44919342  -4.17056592   2.06821825
C   -1.07595355  -2.70857594   3.51209755
N   -1.42083007  -2.40699521   4.56319260
C    3.65620858   0.72044570   0.68854563
H    3.90158694   1.09228771   1.66138845
H    4.43914160   0.07731632   0.34459857
H    2.73917239   0.17130837   0.73745284
C    3.49605520   1.90124607  -0.28698571
N    3.37681374   2.78040562  -1.01331313
Cl  -0.15990013  -0.07235996   0.09034519
