73
Energy:   -460.02616564
C   -2.06156585  -0.67569071  -3.30133542
H   -3.09956344  -0.90467488  -3.42392184
H   -1.80526875  -0.72634550  -2.26372037
H   -1.47338468  -1.38216601  -3.84890702
C   -1.78304218   0.74357919  -3.83019979
N   -1.57566865   1.80029014  -4.22396335
C    0.43730241   3.32641606  -1.83739247
H   -0.47040118   3.89218678  -1.80776353
H    0.20950471   2.28298713  -1.77209815
H    0.95013284   3.52273859  -2.75573964
C    1.33348460   3.73132988  -0.65227548
N    2.00073297   4.03280663   0.23009800
C   -1.99588838   0.13789145   3.57489237
H   -1.68304174   0.18346199   2.55266418
H   -2.75275467   0.87382565   3.74940133
H   -2.38919710  -0.83487525   3.78449266
C   -0.79075933   0.41316621   4.49330828
N    0.10651402   0.61812079   5.17711067
C   -0.81124148   3.35013186   2.17209191
H   -1.43177134   3.20861151   3.03221682
H    0.14240925   3.72652101   2.47832806
H   -0.68069857   2.41500199   1.66871355
C   -1.47857189   4.35798612   1.21789072
N   -1.97542972   5.10837942   0.50744456
C   -3.25737810   2.07247651  -0.90247526
H   -3.86032685   1.50596449  -1.58101570
H   -2.24830741   1.71868780  -0.94132073
H   -3.28395349   3.10575593  -1.17910943
C   -3.80364241   1.90987133   0.52817315
N   -4.21036101   1.78880439   1.59335592
C    1.56608391  -0.36119346  -3.69007998
H    0.95229498  -0.90710813  -4.37574790
H    1.59619335   0.66830794  -3.98011341
H    1.15844381  -0.44219428  -2.70409443
C    2.99284563  -0.94061724  -3.70488156
N    4.05513458  -1.37202458  -3.71590201
C    2.99839264  -2.61849683  -0.51078872
H    3.80982313  -2.20011084   0.04727393
H    2.19085271  -1.91740318  -0.54608828
H    3.32506950  -2.83667220  -1.50606799
C    2.52262182  -3.91570350   0.16928259
N    2.16838882  -4.88153282   0.67562660
C   -3.61682456  -1.67926239   0.91610495
H   -2.59997874  -1.35991979   0.82152659
H   -3.64197097  -2.71463715   1.18492803
H   -4.10290048  -1.10192836   1.67459998
C   -4.34454570  -1.47964040  -0.42634542
N   -4.88636718  -1.33101276  -1.42586074
C   -0.92626080  -3.72314245  -0.66294423
H   -0.57045402  -4.61661007  -0.19388419
H   -1.98687288  -3.78511246  -0.79006948
H   -0.68931406  -2.87937825  -0.04908975
C   -0.25289300  -3.56241588  -2.03856873
N    0.24845994  -3.44274765  -3.06278371
C    2.35105342   1.32653055   2.66849752
H    1.37406146   1.01677648   2.36118771
H    2.66325757   2.16129926   2.07639207
H    2.32737475   1.60988205   3.70002567
C    3.34193224   0.16308551   2.47835337
N    4.07968657  -0.70315220   2.33678241
C    0.96218146  -2.44379223   2.94070429
H    1.11154477  -1.87229138   2.04852854
H    1.67163741  -3.24405581   2.97460961
H    1.09495773  -1.81301437   3.79474693
C   -0.46497737  -3.02239456   2.94678913
N   -1.52756199  -3.45319029   2.95131958
C    3.81650093   1.10411865  -0.87602222
H    4.21782477   1.67239812  -0.06306601
H    4.42407283   0.23885222  -1.04055024
H    2.81839694   0.79939928  -0.63973084
C    3.80096886   1.97012753  -2.14935933
N    3.78940453   2.61491051  -3.09741668
Cl  -0.07640190  -0.02817307   0.04323236
