73
Energy:   -460.41045179
C   -2.68708625  -1.22629115  -2.58450992
H   -3.57699168  -1.46482817  -2.04038807
H   -1.84746565  -1.24646529  -1.92153982
H   -2.54283209  -1.94421230  -3.36468877
C   -2.82233206   0.17933184  -3.19894674
N   -2.92302871   1.22588204  -3.65642287
C   -0.61403622   3.25928952  -2.30706535
H   -1.56657902   3.45564454  -2.75316746
H   -0.60830145   2.27007829  -1.89923285
H    0.15172059   3.34336692  -3.04965986
C   -0.35345731   4.27940298  -1.18320275
N   -0.15944447   5.03892382  -0.34643595
C    0.18232179   3.15515458   2.46411674
H    0.65292017   2.71014850   3.31582499
H    0.67315471   4.07556581   2.22573615
H    0.25022858   2.48830166   1.63009339
C   -1.29915821   3.43069675   2.78175412
N   -2.40218742   3.63585042   3.01824959
C   -2.34201596   0.02162500   3.18607328
H   -2.08235774  -0.03078553   2.14938097
H   -2.96144512   0.87743095   3.35578711
H   -2.87300924  -0.86414881   3.46598395
C   -1.05997905   0.14018852   4.03101355
N   -0.10544430   0.22846444   4.66010999
C   -3.29313893   2.15881186  -0.04127918
H   -3.31875975   2.52468773  -1.04645508
H   -2.28502582   1.91908023   0.22543378
H   -3.66833168   2.91036741   0.62151320
C   -4.16719784   0.89557799   0.06763007
N   -4.81797444  -0.04495703   0.14871795
C    0.94594550   0.20752184  -3.86110153
H    0.33649889   1.02531937  -4.18464782
H    1.93637745   0.32574990  -4.24835567
H    0.98081601   0.18989040  -2.79181566
C    0.34742289  -1.11428157  -4.37705350
N   -0.09820441  -2.09842428  -4.76120319
C    3.88450044  -0.53099116  -1.04985644
H    4.27418423  -1.20844084  -0.31902906
H    2.88008208  -0.26725242  -0.79201013
H    4.48925087   0.35131164  -1.07664775
C    3.89887017  -1.20541435  -2.43425048
N    3.90956909  -1.70755307  -3.46499478
C   -2.90855613  -2.74999158   0.70454525
H   -3.76617336  -2.68014634   0.06853070
H   -2.27567113  -1.90224617   0.54428483
H   -3.22352416  -2.77175591   1.72690553
C   -2.13178980  -4.03931409   0.37915085
N   -1.55345196  -4.99927331   0.13687992
C    1.00361828  -3.35932289  -1.57564752
H    0.44348488  -4.26913300  -1.63392544
H    1.52035219  -3.19885942  -2.49876000
H    0.33799523  -2.54177779  -1.39271297
C    2.02408255  -3.45747787  -0.42646596
N    2.78386458  -3.53055871   0.42915196
C    2.57282680  -0.30279246   2.58203182
H    2.60889582  -0.70099510   3.57452054
H    2.51430194  -1.10590436   1.87741476
H    1.71183026   0.32430849   2.48040288
C    3.84434009   0.52364735   2.31398106
N    4.79103952   1.13896936   2.11440509
C    0.35047263  -3.12651134   2.78200470
H    0.23089775  -2.30847349   2.10272854
H    0.55823588  -4.02002484   2.23121695
H    1.16229229  -2.92124326   3.44812252
C   -0.94486845  -3.31331574   3.59366695
N   -1.90930876  -3.45240011   4.19798639
C    2.79391760   2.90698709  -0.20174502
H    2.18825608   2.09519553   0.14331842
H    2.35370189   3.83412780   0.10077658
H    3.77456110   2.82396055   0.21818834
C    2.88780559   2.86046659  -1.73817624
N    2.95770947   2.82582996  -2.88211912
Cl  -0.01921732   0.04840605   0.00587949
