73
Energy:   -460.29321233
C   -3.00039142   0.33817523  -2.40782652
H   -2.43676044  -0.53097563  -2.13987675
H   -4.04425183   0.10331046  -2.39817918
H   -2.80442508   1.12096761  -1.70516560
C   -2.59126432   0.80049742  -3.81866784
N   -2.28665060   1.14471731  -4.86910332
C    0.19086215   2.89976820  -2.81370303
H    0.34917298   2.02984484  -2.21114913
H    1.04970741   3.53527077  -2.75521882
H    0.03338846   2.60562392  -3.83035453
C   -1.04644005   3.66050814  -2.30188469
N   -1.96766777   4.22691361  -1.92081267
C   -1.88715673  -0.01500551   3.52684156
H   -1.33614779  -0.40713843   2.69767264
H   -2.93556933  -0.10043777   3.33080217
H   -1.64333976  -0.56724341   4.41029257
C   -1.52218079   1.46714374   3.73086649
N   -1.25043962   2.57067122   3.88277231
C    0.11661319   3.96109368   1.08903598
H    0.19350764   4.24934074   2.11660645
H   -0.16830773   2.93154774   1.02776358
H   -0.62133520   4.56489443   0.60348895
C    1.47811226   4.15898857   0.39711265
N    2.49181020   4.30633031  -0.11805572
C   -3.27099912   2.68188146   0.82010631
H   -2.41407009   2.15978155   0.44864365
H   -2.97852405   3.31618451   1.63067219
H   -3.69388397   3.27589831   0.03702810
C   -4.31664562   1.66545076   1.31517401
N   -5.09517697   0.90867190   1.68377442
C    0.54078986  -0.77773184  -3.79584412
H    0.92709386   0.00572844  -4.41379184
H    0.16392458  -0.36084482  -2.88530755
H   -0.24981367  -1.28170458  -4.31145699
C    1.66508525  -1.77999245  -3.47485570
N    2.50217426  -2.52622103  -3.23586522
C    3.94293767  -2.81113337  -0.21738502
H    3.13305094  -2.11253553  -0.18664865
H    4.33366392  -2.86067727  -1.21226064
H    4.71381205  -2.49324314   0.45313536
C    3.43673168  -4.20281262   0.20520739
N    3.05983831  -5.23898108   0.51984665
C   -3.46757145  -1.90898662   0.54633985
H   -2.91711022  -0.99619807   0.45301421
H   -4.42954430  -1.70389290   0.96758074
H   -3.58851268  -2.35291776  -0.41968161
C   -2.70123601  -2.87897419   1.46473743
N   -2.13066444  -3.60117402   2.14852618
C    0.07194447  -3.59416176  -0.86487583
H   -0.27244887  -4.11255022   0.00550731
H    0.47802494  -2.64659808  -0.57830853
H    0.82885707  -4.17469561  -1.34960550
C   -1.10622930  -3.37631808  -1.83237296
N   -1.98343322  -3.21412356  -2.55271855
C    2.09478052   1.35943608   2.88818554
H    1.22072482   1.21107554   2.28908959
H    2.44687617   2.36208729   2.76321234
H    1.85457954   1.19142778   3.91725104
C    3.19172463   0.37170071   2.44921802
N    4.00844938  -0.36371316   2.12238675
C    1.11090946  -2.60690112   2.59507953
H    0.55951970  -2.02824703   1.88372239
H    0.68982464  -3.58844793   2.65951962
H    2.13209363  -2.67665252   2.28328356
C    1.04080392  -1.92664569   3.97491204
N    0.98860717  -1.42016460   5.00226006
C    3.19819321   0.83848662  -1.11522500
H    2.75557841   1.63037443  -0.54785737
H    4.18068535   0.63813684  -0.74177053
H    2.59689366  -0.04223903  -1.02770204
C    3.28659541   1.25470138  -2.59527579
N    3.35241487   1.56459218  -3.69724087
Cl  -0.25216515   0.16905673   0.00537846
