73
Energy:   -458.69541257
C   -2.49446804  -0.92023734  -2.98137108
H   -3.46883376  -0.62069055  -2.65612756
H   -1.78772823  -0.74722117  -2.19684361
H   -2.50531325  -1.96125810  -3.22846872
C   -2.09367709  -0.10208159  -4.22297801
N   -1.79527001   0.50707256  -5.14741081
C   -0.34433995   2.61808660  -2.81385480
H   -1.29967515   2.84266138  -3.24023610
H   -0.41217083   1.71644716  -2.24171461
H    0.37440554   2.49082157  -3.59622787
C    0.09379890   3.77572212  -1.89760464
N    0.42001318   4.63763439  -1.21541476
C   -1.90551806   0.41697309   3.70235134
H   -1.38356834   0.14378415   2.80913441
H   -1.99177341  -0.43752055   4.34055173
H   -1.36450353   1.18806559   4.20991290
C   -3.31125124   0.93019714   3.33887466
N   -4.35788348   1.31231578   3.06824975
C    1.00490989   3.49572044   1.92478803
H    0.71302875   2.63792015   1.35567975
H    2.05611989   3.65907268   1.81001579
H    0.47031806   4.35426603   1.57548853
C    0.68145599   3.25954224   3.41179759
N    0.44062986   3.08369683   4.51894380
C   -2.50500954   2.90500110   0.51317865
H   -1.98893070   3.77577800   0.16632075
H   -1.79587826   2.19237599   0.87950823
H   -3.17573808   3.17801865   1.30088654
C   -3.30304996   2.28443846  -0.64855863
N   -3.89722732   1.82240137  -1.51352484
C    1.39504741  -0.55694726  -3.79170834
H    1.72201826   0.32114911  -4.30836782
H    0.94136956  -0.27679568  -2.86402812
H    0.68194445  -1.08028489  -4.39378888
C    2.60374813  -1.47074510  -3.51672456
N    3.50368076  -2.15110912  -3.31198664
C    3.55637402  -1.48540234   0.02560910
H    3.98981761  -0.58835864   0.41591594
H    2.63396565  -1.25213758  -0.46393094
H    4.22997089  -1.93090544  -0.67631208
C    3.29064134  -2.47101191   1.17867454
N    3.09279129  -3.20484304   2.03718418
C   -3.61901119  -1.26638633   0.54025387
H   -2.79049189  -0.59090203   0.58691114
H   -4.03802024  -1.38493690   1.51763623
H   -4.36259442  -0.87362002  -0.12134850
C   -3.13819497  -2.63324691   0.01861423
N   -2.78020544  -3.65093675  -0.36977020
C    0.46508430  -3.60828472  -1.42099086
H    0.12003555  -4.46767839  -0.88500200
H    0.10377511  -2.72143572  -0.94365073
H    1.53501230  -3.59857919  -1.42867001
C   -0.05818572  -3.66176869  -2.86837745
N   -0.44778404  -3.70158994  -3.94602256
C    1.82098135  -0.24045597   3.56944907
H    2.23445349  -1.14858102   3.95577776
H    1.10805507  -0.46990660   2.80525824
H    1.33727680   0.29551516   4.35917304
C    2.94814641   0.62540640   2.97667485
N    3.78737204   1.27008029   2.53532751
C   -0.32858784  -3.40641307   2.18064939
H   -0.07589772  -2.49786016   1.67510067
H   -0.54337860  -4.16767726   1.46006570
H    0.49383744  -3.71531844   2.79146296
C   -1.56681442  -3.17380548   3.06625012
N   -2.48873039  -3.00061856   3.72562012
C    3.23163264   2.23243608  -0.73561048
H    3.00563266   3.21065151  -0.36558511
H    4.17425843   1.91184305  -0.34372298
H    2.46703377   1.54963668  -0.42889788
C    3.30067811   2.26867223  -2.27363508
N    3.35208560   2.29565169  -3.41876430
Cl   0.03830458   0.02849680   0.12994042
