73
Energy:   -460.31480255
C   -1.76394436   0.65488418  -3.58727101
H   -2.47861735  -0.04271129  -3.97133253
H   -1.25278946   0.21959443  -2.75411881
H   -1.05646831   0.89829563  -4.35220735
C   -2.48926840   1.93506380  -3.13268857
N   -3.02930511   2.88821572  -2.79423128
C    0.46265843   3.52118662  -1.85895262
H    1.13186813   4.29583439  -1.54753747
H    0.46587148   2.73428554  -1.13391781
H   -0.52647135   3.91920925  -1.94894897
C    0.91848063   2.96596618  -3.22114071
N    1.25786097   2.55257933  -4.23535166
C   -2.68976324  -0.44506900   2.84401903
H   -3.63834840  -0.22601751   2.40005640
H   -2.80958290  -1.21059970   3.58192492
H   -2.01130758  -0.78141493   2.08806373
C   -2.12852697   0.82554153   3.50897221
N   -1.71066105   1.77156882   4.00406008
C    0.96091249   3.09268817   2.40912197
H    1.63179811   2.80506011   3.19147916
H    0.72557569   2.23857393   1.80911818
H    0.06261974   3.48678096   2.83650949
C    1.62691904   4.16874647   1.53154929
N    2.12279118   4.96992079   0.87815654
C   -2.50124813   3.02179506   0.54858866
H   -1.82740313   2.35559019   0.05159352
H   -2.09185270   3.30134182   1.49682285
H   -2.64402480   3.89696175  -0.05024119
C   -3.85481530   2.31870665   0.76100945
N   -4.86260759   1.79522537   0.91916638
C    1.75302370  -0.74623686  -3.49049526
H    2.54275870  -0.15581489  -3.90597173
H    1.45123941  -0.32894417  -2.55257621
H    0.92052037  -0.75207179  -4.16265837
C    2.24892277  -2.18819729  -3.27500924
N    2.61814217  -3.26180238  -3.11457010
C    3.33786426  -1.97191346   0.14846787
H    3.98035312  -1.18542859   0.48543936
H    2.42470048  -1.55329575  -0.22002937
H    3.82194243  -2.51703754  -0.63473527
C    3.03072255  -2.92179082   1.32107051
N    2.80204159  -3.62901770   2.19412648
C   -3.72989973  -0.93974443  -0.94532988
H   -3.66640319  -1.15561952  -1.99140173
H   -2.92389639  -0.29434257  -0.66476945
H   -4.66206495  -0.45768028  -0.73656866
C   -3.63970830  -2.25175623  -0.14402436
N   -3.57255669  -3.22860865   0.45258403
C   -0.40808981  -3.60241080  -1.40885859
H   -1.08239000  -4.10719555  -0.74900117
H    0.04038683  -2.77660153  -0.89718795
H    0.35490749  -4.28168842  -1.72716053
C   -1.18121985  -3.08679324  -2.63686856
N   -1.75685030  -2.70289253  -3.55117780
C    1.37340807  -0.55882872   3.54886107
H    1.58070840  -1.48150712   4.04945204
H    0.77557964  -0.74971575   2.68222251
H    0.84413744   0.09476645   4.21036318
C    2.69723302   0.10318579   3.12362666
N    3.68288086   0.59608568   2.80702032
C   -0.61167336  -3.67893773   2.21429200
H   -0.42833674  -2.79029724   1.64718888
H   -1.49918755  -4.15548967   1.85357619
H    0.21859183  -4.34587340   2.11058265
C   -0.79314557  -3.31214772   3.69892425
N   -0.92825989  -3.03905589   4.80430045
C    3.47920134   1.86325591  -0.44514833
H    3.28421504   2.83637115  -0.84505740
H    4.06571474   1.95446336   0.44512260
H    2.55273038   1.38043350  -0.21399220
C    4.24912199   1.02632874  -1.48359674
N    4.82236291   0.40319841  -2.25676878
Cl  -0.07007897   0.02284496  -0.01653525
