73
Energy:   -458.42425476
C   -2.01501399   1.19801392  -3.06291687
H   -3.00331453   0.88824208  -3.33162422
H   -1.59360386   0.49177031  -2.37842250
H   -1.40635542   1.25014550  -3.94139062
C   -2.07512903   2.58528864  -2.39699268
N   -2.11988741   3.61817773  -1.90118185
C    1.44674680   3.16778874  -1.86003447
H    0.66847496   3.90205550  -1.86677611
H    2.39195711   3.65112461  -1.72638191
H    1.28121164   2.47995459  -1.05730077
C    1.44472710   2.40531679  -3.19803015
N    1.44322334   1.83762176  -4.19422875
C   -1.48238139   0.66026199   3.59454283
H   -1.44276762   0.31151292   2.58374858
H   -2.28927863   1.35490075   3.70081102
H   -1.63703078  -0.16940294   4.25229564
C   -0.15548488   1.35653793   3.94971247
N    0.83244988   1.87494702   4.21415241
C   -0.53966497   3.67442019   1.14809355
H    0.35521751   3.54056896   1.71920595
H   -0.42863012   4.52200252   0.50452961
H   -0.72055839   2.80010220   0.55839471
C   -1.72708478   3.90554567   2.10109681
N   -2.61117281   4.07762909   2.81065105
C   -3.69413610   1.34131761   0.58831726
H   -2.69135368   0.96947414   0.55575886
H   -4.13398304   1.09875071   1.53308974
H   -3.68487527   2.40372992   0.46145746
C   -4.51767249   0.69652856  -0.54200787
N   -5.13083276   0.21645381  -1.38358631
C    0.46674059  -1.62283228  -3.34969652
H    0.70473684  -0.59200479  -3.18953203
H   -0.04299095  -2.00868133  -2.49167941
H   -0.16327070  -1.71396778  -4.20974256
C    1.76458388  -2.41995349  -3.57729391
N    2.73088719  -3.01344647  -3.74675052
C    2.40125614  -3.06679960  -0.08936111
H    2.83993134  -3.43895972   0.81283682
H    2.19404790  -2.02267226   0.01909130
H    3.08062306  -3.21297193  -0.90299084
C    1.09033393  -3.82355255  -0.37292400
N    0.11429275  -4.38698952  -0.58404947
C   -1.77956806  -2.99574467   1.90253774
H   -1.01585534  -2.34369210   1.53311857
H   -1.97394771  -3.76193205   1.18137719
H   -1.45455483  -3.44256383   2.81884452
C   -3.06676045  -2.18838881   2.15336092
N   -4.02513370  -1.58727569   2.34011017
C   -2.87488091  -2.40524262  -1.47935401
H   -3.85366187  -2.34323934  -1.05151805
H   -2.25769327  -1.63221505  -1.07142401
H   -2.44687315  -3.35963691  -1.25387674
C   -2.97046823  -2.23344820  -3.00675368
N   -3.04163733  -2.10553945  -4.14397216
C    3.11982299   1.74754853   1.66240614
H    3.21699665   2.12220258   2.65994902
H    2.08559566   1.58432397   1.44188255
H    3.52343648   2.45950416   0.97312069
C    3.88757946   0.41856187   1.53613476
N    4.45920905  -0.57092911   1.44211998
C    1.76343535  -1.55460836   3.34736593
H    2.21163248  -0.68438133   3.77948216
H    1.28267888  -1.28950203   2.42894830
H    2.51930703  -2.28729821   3.15573430
C    0.72240444  -2.13411505   4.32308445
N   -0.05269039  -2.56558412   5.04955125
C    3.77625334  -0.07174512  -2.01273796
H    2.80161382  -0.10098519  -1.57214405
H    4.38079613  -0.84852057  -1.59315841
H    3.69423168  -0.21530078  -3.06988663
C    4.42696701   1.29492999  -1.72924040
N    4.91145292   2.31248173  -1.51816358
Cl   0.08534353  -0.00561376   0.02021041
