73
Energy:   -459.66475640
C   -1.93449199  -1.65177782  -2.93240962
H   -2.96395994  -1.93995559  -2.97768093
H   -1.67713960  -1.40532313  -1.92348498
H   -1.32213977  -2.46214204  -3.26891174
C   -1.70455179  -0.42540689  -3.83504013
N   -1.53335085   0.48768201  -4.50708958
C    0.49137184   2.98977091  -2.62380126
H    0.09292236   2.40876876  -3.42914261
H    0.67086477   2.35537610  -1.78105301
H    1.41065886   3.44268738  -2.93149778
C   -0.51658228   4.08717478  -2.23478555
N   -1.26704995   4.90424184  -1.94514567
C   -2.26150314   0.59405563   3.24898603
H   -1.80293650   0.52127786   2.28497347
H   -2.96558515   1.39976500   3.24911869
H   -2.76738576  -0.32171585   3.47336178
C   -1.18004983   0.85720881   4.31332109
N   -0.37485868   1.05313831   5.10576692
C   -0.82953677   3.58849996   1.35628669
H   -0.99975894   3.59575587   2.41263510
H   -1.00013383   2.60368029   0.97428415
H   -1.49888020   4.27576854   0.88242978
C    0.62434492   4.00630878   1.06773197
N    1.70682592   4.31738643   0.85288986
C   -3.16752257   1.83303154  -1.50417903
H   -3.77371833   1.13783774  -2.04651884
H   -2.17124057   1.45099453  -1.42437304
H   -3.14996524   2.76981347  -2.02092890
C   -3.75422562   2.03517326  -0.09474004
N   -4.19105271   2.18567696   0.95465135
C    1.82073937  -0.45066959  -3.45323120
H    2.85116999  -0.22108262  -3.62759504
H    1.49416582   0.03364432  -2.55674425
H    1.23387546  -0.10603952  -4.27889454
C    1.65235639  -1.97416556  -3.30421039
N    1.52698760  -3.10847756  -3.19325763
C    3.40839862  -2.16595483  -0.15452334
H    4.26760516  -1.63208832   0.19426149
H    2.55538795  -1.52026327  -0.13570054
H    3.57944303  -2.50184432  -1.15593292
C    3.15330465  -3.38020908   0.75767931
N    2.96337559  -4.28427656   1.43685565
C   -3.60886208  -1.69956241   0.71587113
H   -4.00984416  -1.22021963   1.58440095
H   -2.62166877  -1.33150481   0.52910372
H   -3.57077867  -2.75660809   0.87743593
C   -4.50738127  -1.39782938  -0.49789179
N   -5.17636965  -1.17317542  -1.40159346
C   -0.18233712  -3.93022202  -0.16608847
H   -0.02176968  -4.38692732   0.78813297
H   -0.13197629  -2.86617696  -0.06523706
H    0.57125785  -4.25968035  -0.85052322
C   -1.57053201  -4.33016425  -0.69953120
N   -2.60410621  -4.62793941  -1.09670356
C    2.30442882   1.43477989   3.00756990
H    2.07063820   1.46102544   4.05138659
H    1.44373607   1.11669761   2.45717845
H    2.59463683   2.41198668   2.68238488
C    3.46198616   0.44835760   2.76542930
N    4.32384022  -0.28607863   2.58514462
C    0.84751495  -2.05738170   3.18615396
H    0.96493690  -1.31275815   3.94552741
H    1.06138555  -1.62816116   2.22963518
H    1.52214313  -2.86665815   3.37282892
C   -0.60026152  -2.58208752   3.20122350
N   -1.67819691  -2.97275486   3.21244346
C    3.62732269   1.81802281  -0.43213158
H    2.59051318   1.59055052  -0.29728879
H    3.87155451   2.70572472   0.11306126
H    4.22086918   1.00374779  -0.07219014
C    3.91377933   2.03973343  -1.92892382
N    4.12705932   2.20480707  -3.04335367
Cl   0.07030316   0.06713009   0.02218386
