61
Energy:  -2129.74689468
O   -3.03962953  -0.31040837   1.63410684
H   -2.93851117   0.17376535   2.45360835
H   -3.95576202  -0.58775560   1.63069781
O    1.76587047   2.08351046   3.58335559
H    1.64384461   2.86464218   3.04374947
H    2.62961944   2.19811089   3.97963367
O    0.78067387   0.19494182   1.86441543
H    1.24720444   0.81432197   2.42561887
H    0.38944088  -0.43224786   2.47252866
O   -0.35923711   1.09865995   5.12010912
H   -0.25079954   1.23904298   6.06072900
H    0.41104032   1.50802458   4.72599602
O    3.34882176   1.06171821  -2.06100277
H    4.25573654   1.28134957  -2.27430889
H    2.94158614   0.87570599  -2.90704677
O   -0.46475494  -1.29613238   3.70822992
H   -0.47027912  -2.11474759   4.20428482
H   -0.47201901  -0.61065010   4.37628166
O   -0.22733335   0.34395848  -2.11603958
H   -1.05769322   0.02092365  -2.46587218
H    0.34957398   0.39729444  -2.87798778
O   -1.27532295  -3.14894229  -3.96363773
H   -1.63602164  -3.69745673  -4.66024394
H   -0.39552733  -2.92417527  -4.26641042
O   -0.79922000  -3.73131881  -1.31535943
H   -1.08392463  -3.60703319  -2.22074786
H   -1.21793025  -4.54752789  -1.04201659
O    1.14348044   3.95003143   1.64126656
H    1.44315677   4.85902039   1.62842051
H    0.19894044   4.01073067   1.78406588
O    1.91899313  -0.82613046  -0.65684018
H    2.64827308  -0.36540723  -1.07170968
H    1.99588748  -1.72767379  -0.96915211
O   -1.39566980   1.41167162   0.34685369
H   -1.47851443   2.28096774   0.73889051
H   -2.15053929   0.92572606   0.67890912
O   -1.58717299   3.64020278   1.90967914
H   -1.96481359   3.08190344   2.58932704
H   -2.20651424   4.36484238   1.82281306
O   -2.45652292  -0.83992211  -2.99905112
H   -3.28820243  -0.61162154  -3.41428586
H   -2.18803725  -1.65147324  -3.42978545
O    1.87880628  -3.32036131  -1.77579508
H    1.00045859  -3.63742126  -1.56553290
H    2.45906715  -4.04140964  -1.53162615
O   -0.89281722  -1.40359650   0.15091596
H   -0.95782989  -2.23483137  -0.31924762
H   -1.65974800  -1.39114420   0.72353622
O    1.64556791   0.26195069  -4.10732153
H    1.61098143  -0.67313706  -4.30893134
H    1.57758551   0.69373096  -4.95889422
O    1.39464237  -2.47745925  -4.37373031
H    1.90960016  -2.94366223  -5.03229322
H    1.69290804  -2.83603435  -3.53785152
O   -2.58092156   1.68038352   3.60916000
H   -1.85045302   1.48004321   4.19440466
H   -3.30897201   1.88577213   4.19566653
O    1.39489739   2.00017973  -0.29749337
H    2.16347079   2.06675371  -0.86414553
H    1.43244931   2.78381790   0.25089785
Ca   0.26242442   0.28463829  -0.12428343
