61
Energy:  -2131.07637055
O   -3.19389171  -0.27676339   1.98833939
H   -2.89845095  -0.29222702   2.89867311
H   -4.14262323  -0.39194591   2.04194289
O    1.93884570   1.84195244   3.26774840
H    1.97163589   2.65128233   2.75770745
H    2.81026798   1.76801496   3.65683489
O    0.79070074   0.03285958   1.56116886
H    1.30262577   0.59816332   2.13961185
H    0.50775582  -0.69014240   2.12102793
O   -0.44946540   2.13082687   4.66617558
H   -0.31680897   2.49157323   5.54281472
H    0.43479887   1.97543127   4.33427083
O    2.17079166   2.28289848  -2.84234109
H    2.73248084   2.89483416  -3.31802149
H    2.14899749   1.49987880  -3.39246566
O   -0.25906980  -1.84926606   3.15612629
H   -0.00306449  -2.62974234   3.64760357
H   -0.86470123  -1.38813882   3.73647454
O   -1.16694206   0.97150039  -1.95175323
H   -1.60395511   1.79232698  -2.17867866
H   -1.22578534   0.44070182  -2.74612228
O   -0.71559973  -3.24108818  -3.91079289
H   -1.04447058  -3.86983242  -4.55325417
H    0.23417061  -3.25134390  -4.02938028
O   -0.94250534  -3.59963073  -1.18475834
H   -0.97741808  -3.53023691  -2.13880103
H   -1.43806400  -4.39347083  -0.98358341
O    1.47450366   3.96740103   1.57566815
H    1.88129929   4.83248577   1.52690783
H    0.59056587   4.13591408   1.90199493
O    1.14535041  -0.65956353  -1.28153964
H    1.39270925  -0.47900986  -2.18842763
H    1.49071165  -1.53533722  -1.10839835
O   -1.55564358   1.58892366   0.86802745
H   -1.47729014   2.39196826   1.38301478
H   -2.28096564   1.11369678   1.27336580
O   -1.11861194   3.72678883   2.51742125
H   -0.98932788   3.27457216   3.35109838
H   -1.73429296   4.43129655   2.71950442
O   -1.12600565  -0.53712931  -4.22800558
H   -1.61732722  -0.35275104  -5.02853017
H   -1.10578901  -1.49256315  -4.17351424
O    1.81815535  -3.30776773  -1.12438076
H    0.91890490  -3.62460880  -1.03957385
H    2.33363284  -3.89889394  -0.57566900
O   -1.37071814  -1.17087724   0.04748812
H   -1.32123152  -2.05212834  -0.32288928
H   -2.06422651  -1.22548580   0.70498025
O    1.61416594  -0.24058836  -3.88934791
H    1.97216472  -1.10232458  -4.10260693
H    0.72810709  -0.25255122  -4.25127118
O    2.02832844  -3.01849084  -3.90329394
H    2.70811485  -3.50721111  -4.36727108
H    2.17048773  -3.22725225  -2.98001648
O   -2.00582953  -0.16879918   4.47963010
H   -1.50483165   0.63400683   4.62362828
H   -2.43757700  -0.33578316   5.31745008
O    1.00039737   2.15745489  -0.42489185
H    1.48368489   2.32124220  -1.23473056
H    1.26458275   2.86758706   0.16004424
Ca  -0.16748373   0.48842227  -0.20025328
