61
Energy:  -2130.85792889
O   -3.06177522  -0.56012201   1.52750707
H   -2.91709913  -0.46829670   2.46924418
H   -4.00720509  -0.68202491   1.44070908
O    1.59581650   1.88916415   3.51405731
H    0.74706521   2.00913653   3.94003820
H    2.21332546   1.77691755   4.23677111
O    0.87869445  -0.09791783   1.76837579
H    1.25212652   0.53847612   2.37811595
H    0.53495696  -0.79385351   2.32850963
O   -1.03507671   2.29761518   4.26821195
H   -1.25485898   2.88427435   4.99192365
H   -1.21460194   2.81071512   3.48034711
O    4.32082535  -0.11177459  -0.70928726
H    5.26190283  -0.22403536  -0.57511368
H    4.25385410   0.54733242  -1.40017412
O   -0.38739826  -1.88096049   3.31484586
H   -0.21391459  -2.63551837   3.87767591
H   -1.08059952  -1.39926814   3.76615101
O   -0.29622090   0.17812769  -2.16428993
H   -1.16409690  -0.05249181  -2.49570768
H    0.26924831   0.15562351  -2.93628085
O   -3.06067987  -3.34212611  -3.62646657
H   -2.94169192  -3.56684766  -4.54927421
H   -3.90114000  -3.73466942  -3.39031328
O   -0.90850850  -3.62084723  -1.89435564
H   -0.91267255  -4.52892604  -1.59168852
H   -1.64841266  -3.56606534  -2.49914704
O    1.56234862   3.70924778   1.45072287
H    1.75447643   3.20042220   2.23838732
H    2.14734929   4.46496340   1.50457421
O    1.85218602  -1.14558124  -0.79221086
H    2.77183590  -0.90302127  -0.68431919
H    1.85547392  -1.79045915  -1.49956758
O   -1.30242267   1.20729639   0.42016993
H   -1.33890974   2.07661362   0.81915376
H   -2.07165363   0.75300988   0.76388398
O   -1.16910183   3.57021392   1.79950799
H   -0.25759250   3.82645084   1.65906146
H   -1.67323636   4.36018368   1.60450033
O   -2.72867155  -0.64986325  -2.97335181
H   -3.42670750  -0.12718514  -3.36804820
H   -2.91738355  -1.54764585  -3.24649286
O    1.50556389  -2.74081209  -2.97972024
H    0.67216138  -3.14177909  -2.73294590
H    2.05569513  -3.47664494  -3.24830446
O   -0.91913424  -1.60726781   0.00797922
H   -1.69563724  -1.63817100   0.56683513
H   -1.01028841  -2.36362315  -0.57154590
O    3.16948403   1.63274302  -2.58993739
H    2.75815215   1.04958402  -3.22787431
H    3.58984137   2.30995715  -3.11994925
O    1.62894716  -0.16259303  -4.07936809
H    1.58606538  -0.10606689  -5.03393490
H    1.69317781  -1.10008525  -3.89711933
O   -2.36506546  -0.14305167   4.16671895
H   -2.91568496  -0.23845446   4.94386007
H   -1.93867756   0.70673710   4.27755332
O    1.45952524   1.72960992  -0.44014156
H    2.08976639   1.84448259  -1.15136039
H    1.59142423   2.49236212   0.12292467
Ca   0.29453192   0.04994875  -0.19627596
