61
Energy:  -2137.10875402
O   -3.94434139  -0.53514541   0.93681719
H   -3.73811991  -1.20715267   1.58651773
H   -4.89588017  -0.57721487   0.84175956
O    1.69861496   2.26443489   3.37872190
H    1.47914851   2.99972845   2.80652465
H    2.55316880   2.49209634   3.74497298
O    0.71860654   0.04399827   2.07511897
H    1.22177172   0.75031468   2.48030261
H    0.30464766  -0.40808019   2.81030258
O   -0.68332985   1.82721477   4.76198493
H   -0.74735848   2.18498050   5.64749940
H    0.21031685   2.02988451   4.48530389
O    3.06585100   1.17445821  -1.80716795
H    3.96898387   1.48983572  -1.77370316
H    2.89152739   1.04418659  -2.73930122
O   -0.72049355  -0.89122700   4.20433596
H   -0.37413067  -1.36656152   4.95953243
H   -0.84838129   0.00279178   4.52152203
O    0.10590435   1.97221136  -3.39102606
H    0.83760172   1.61604278  -3.89500498
H   -0.23018286   2.68867564  -3.92950183
O   -1.14272266  -2.10389145  -3.47053185
H   -0.31248639  -2.07352833  -3.94594501
H   -1.81066540  -2.13188066  -4.15558728
O   -0.63334675  -3.82808727  -1.39257255
H   -1.06602743  -4.68188935  -1.39899770
H   -0.96142802  -3.38687901  -2.17610927
O    0.57948648   3.97874237   1.51939864
H    0.67776721   4.92012732   1.37668520
H   -0.30904866   3.87930838   1.86123198
O    1.71630407  -0.85353422  -0.57732521
H    2.36878308  -0.27277462  -0.96876010
H    1.89790790  -1.71156166  -0.96078423
O   -1.71342653   0.93526409   0.84330121
H   -2.57349226   0.51601445   0.81594202
H   -1.83716012   1.70035970   1.40504007
O   -1.80597362   3.05996943   2.56213948
H   -1.55872134   2.68459069   3.40723649
H   -2.60762922   3.55079876   2.74287886
O   -0.75173082   0.01501054  -1.77632404
H   -0.56748247   0.75154244  -2.35925213
H   -1.02117623  -0.69277441  -2.36170552
O    2.00109303  -3.21833376  -1.92507806
H    1.16765204  -3.64579665  -1.72788920
H    2.66125116  -3.89104178  -1.75808397
O   -0.83615720  -1.84537979   0.47999988
H   -0.81272702  -2.61171581  -0.09307252
H   -1.44326499  -2.08720640   1.17940811
O    2.29667528   0.61253109  -4.39518017
H    2.04064715  -0.30615958  -4.47696585
H    2.77138856   0.80232238  -5.20441341
O    1.46533666  -2.04099393  -4.38954127
H    1.74821402  -2.58466195  -5.12482172
H    1.79665255  -2.49442624  -3.61438919
O   -2.51481243  -2.27320246   2.60101306
H   -2.02805645  -1.83010148   3.29596773
H   -2.87754539  -3.05279669   3.02159538
O    0.87635481   1.85059451  -0.18005494
H    1.57615353   1.98422515  -0.81931736
H    0.80607419   2.68841553   0.27749115
Ca  -0.01725988   0.01618545   0.14232603
