61
Energy:  -2131.33403019
O   -4.07657421   0.98207296   1.56618853
H   -3.76749969   1.25986036   2.42847557
H   -4.90179860   1.45152935   1.44433931
O    1.48152173  -0.06669115   4.35548907
H    1.74374278  -0.10119942   5.27542447
H    0.54893209  -0.28219950   4.36352448
O   -0.12351901  -1.06778118   1.40764993
H   -0.62638994  -0.99643088   2.21898329
H    0.72089896  -1.42733700   1.67951341
O   -1.20952191  -0.60626537   3.89145813
H   -1.76034547   0.17366999   3.95873419
H   -1.70438012  -1.28932148   4.34398609
O    3.33529415   1.38369012  -1.77757531
H    3.60184602   0.47206623  -1.89641906
H    4.15828161   1.86582489  -1.69714178
O    2.32326941  -1.71725102   2.27121475
H    2.88980467  -2.46087780   2.47685732
H    2.24757498  -1.23785193   3.09624730
O   -0.56332452   0.73855559  -2.26552419
H   -1.22810069   0.38162038  -2.85450786
H    0.10875150   1.09203057  -2.84827723
O   -3.71375678  -1.73051931   1.16599319
H   -4.42061187  -2.32827104   1.40946928
H   -4.04377764  -0.86207779   1.39648704
O    0.00822006  -2.58020047  -3.71422341
H    0.73349790  -2.17873689  -4.19279514
H    0.00408185  -3.49202744  -4.00540426
O    1.75547475   1.98251067   2.55003296
H    2.52938765   2.49720981   2.77888980
H    1.71522469   1.29920666   3.21914239
O    3.48182393  -1.32186549  -2.21298277
H    4.21880940  -1.92899360  -2.14605199
H    3.20050942  -1.38560335  -3.12568835
O   -1.56449857   1.25852452   0.49039795
H   -1.26839789   1.99811387   1.02102384
H   -2.49282557   1.16593244   0.70456506
O   -0.75236588   3.10865849   2.34443257
H    0.15122266   2.85333563   2.53036221
H   -0.72727918   4.06447740   2.29956937
O   -2.26591784  -0.98675926  -3.57621883
H   -1.60711715  -1.62528778  -3.84915623
H   -2.93048934  -1.01851832  -4.26438155
O    0.87774159  -1.53932272  -1.32557276
H    1.82901544  -1.55305828  -1.43103009
H    0.54739760  -2.05716824  -2.05969857
O   -1.99139774  -1.29583486  -0.83976095
H   -2.41138882  -1.40037899  -1.69352313
H   -2.64854107  -1.59406637  -0.21091083
O    1.54380833   1.43618830  -3.87182509
H    1.55573788   2.20014942  -4.44841242
H    2.25280217   1.59479261  -3.24860422
O    2.18525478  -1.15853182  -4.65922561
H    2.55831925  -1.23325756  -5.53755973
H    1.95595912  -0.23313479  -4.57381083
O   -2.66727136   1.73103301   3.82527747
H   -3.00545133   2.18962357   4.59440740
H   -2.03265133   2.33770755   3.44391772
O    1.29899558   1.02582152   0.00933126
H    2.04572242   1.23824717  -0.55058500
H    1.55329272   1.33874249   0.87745872
Ca  -0.34891956  -0.14987020  -0.40881704
