61
Energy:  -2131.66666539
O   -3.09589080  -0.43528672   1.09801751
H   -2.87495327  -0.76708601   1.96826327
H   -4.04046816  -0.28401839   1.13153397
O    0.35402503   2.45023325   4.57622859
H   -0.39662843   1.91866160   4.84114899
H    0.57163865   2.96301685   5.35464309
O    2.17950773   0.82265240   3.32408732
H    1.62259100   1.40950058   3.83563870
H    2.93514121   0.65691468   3.88780791
O   -1.92472801   0.95229177   4.98385834
H   -2.47220911   1.47529473   4.39822689
H   -2.39426546   0.95555776   5.81797809
O    3.95425555   0.32228488  -1.15453593
H    4.91124836   0.34136035  -1.16025743
H    3.70493274   0.51706786  -2.05793483
O    0.46351719  -0.83224100   1.94238723
H    1.08676041  -0.48058900   2.57810778
H   -0.28303437  -1.11608843   2.46995073
O    0.43270018   0.75980909  -1.85660955
H   -0.35691910   0.79140970  -2.39673421
H    1.15334356   0.85624028  -2.47918966
O   -0.96934472  -1.59931536  -4.94753081
H   -1.28485697  -1.77668430  -5.83365954
H   -0.01644653  -1.57026427  -5.03339650
O   -1.22526865  -3.07631321  -2.64036733
H   -1.27250297  -2.61069445  -3.47535232
H   -1.87774553  -3.77251616  -2.71657239
O   -0.74028029   3.51421640   2.27115664
H   -0.51765500   4.43274839   2.11960195
H   -0.28897425   3.28897145   3.08467949
O    1.86390657  -1.39977337  -0.63133762
H    2.75067469  -1.07143864  -0.77989891
H    1.78699361  -2.15531398  -1.21398212
O   -0.97205978   1.29760909   0.67681142
H   -0.88424083   2.13350383   1.13485034
H   -1.86563116   1.01223688   0.86740193
O   -3.17134465   2.45040610   3.10085881
H   -3.94136557   3.01875673   3.11750788
H   -2.46579337   3.01155745   2.77908498
O   -1.75762933   0.53763355  -3.37543896
H   -2.43371987   1.08928927  -3.76889722
H   -1.59457191  -0.14395485  -4.02742161
O    1.50551215  -3.33095027  -2.53442182
H    0.55480455  -3.43330289  -2.57813509
H    1.84071021  -4.22555677  -2.47481209
O   -1.07574709  -1.34781963  -0.50794464
H   -1.22043771  -1.94860163  -1.23894222
H   -1.94074944  -1.23742507  -0.11320952
O    2.59077649   0.69889566  -3.53692607
H    2.38867616  -0.08898901  -4.04152994
H    2.80607214   1.35791615  -4.19690458
O    1.80471287  -1.66387448  -4.73335843
H    2.33216194  -2.04535411  -5.43514374
H    1.82326310  -2.31916792  -4.03587852
O   -1.81353704  -1.28271975   3.39880598
H   -1.86359013  -0.56775472   4.03327547
H   -2.02051669  -2.06805994   3.90539464
O    1.98473944   1.18310672   0.59809300
H    2.81145894   1.18615719   0.11564360
H    2.24130840   1.28571772   1.51454005
Ca   0.43529789  -0.05780699   0.02530660
