61
Energy:  -2136.02621875
O   -3.22120689  -0.25449210   2.01445722
H   -3.00633219  -0.23900035   2.94709902
H   -4.16264554  -0.42542886   1.98789151
O    1.68519872   2.19864133   3.59598082
H    1.72318908   2.92308205   2.97150165
H    2.47565807   2.29755063   4.12666228
O    1.06574794   0.05890234   2.00292073
H    1.38742050   0.74690006   2.58551643
H    0.74900138  -0.62578826   2.59207457
O   -0.92278721   2.37647121   4.54397935
H   -0.98887432   2.88285914   5.35356912
H    0.01794657   2.30175148   4.38376461
O    3.30049121   1.10708845  -2.01319574
H    4.17765263   1.37140588  -2.29060518
H    2.80341221   1.03263373  -2.82781271
O   -0.39350478  -1.87591454   3.25833289
H   -0.17325361  -2.63179245   3.80273150
H   -1.01426300  -1.37309995   3.78565497
O   -0.42197040   0.13073449  -1.84599164
H   -1.18758283  -0.32637393  -2.19401656
H    0.09258693   0.36052963  -2.61972079
O   -1.08785630  -1.90073152  -5.16742486
H   -0.13822846  -2.01781739  -5.14041195
H   -1.33100706  -2.11846986  -6.06725794
O   -1.11463264  -3.52514082  -1.47262173
H   -1.65933952  -2.95792178  -2.01832203
H   -1.57992584  -4.36148744  -1.45654619
O    1.30457097   3.97277914   1.51054735
H    0.36653697   4.06217275   1.67887098
H    1.61533713   4.87140427   1.40041504
O    1.95378128  -0.90889281  -0.67014503
H    2.67490797  -0.43509216  -1.08453748
H    1.92856789  -1.75166769  -1.12327485
O   -1.30936356   1.15195690   0.77301467
H   -1.39074910   2.03958325   1.12190965
H   -2.06312841   0.68322292   1.13128672
O   -1.35639652   3.55931453   2.08063351
H   -1.34815233   3.23578327   2.98146169
H   -2.08691433   4.17727874   2.05425502
O   -2.37221417  -1.50224311  -2.83710445
H   -3.30729725  -1.35957929  -2.98372816
H   -2.00961831  -1.63585368  -3.71283518
O    1.55568626  -3.20222757  -2.12921352
H    0.64463336  -3.45103105  -1.97329278
H    2.05213696  -4.00835581  -1.98805468
O   -0.62680702  -1.66790716   0.46931098
H   -0.87732445  -2.39950571  -0.09481348
H   -0.80832569  -1.97631804   1.35709787
O    1.34174560   0.60344795  -3.89550952
H    1.48305361  -0.27225088  -4.25525311
H    1.12358773   1.14281433  -4.65559037
O    1.63168775  -2.02209271  -4.64695697
H    2.26569426  -2.44085986  -5.22910958
H    1.67522791  -2.53206927  -3.83809357
O   -2.11223846  -0.13856865   4.54287851
H   -1.73865493   0.73913579   4.62226440
H   -2.56485979  -0.28280129   5.37387955
O    1.34833140   1.87631580  -0.24471689
H    2.10429771   1.90536717  -0.83114916
H    1.40586477   2.68678002   0.26131622
Ca   0.32253612   0.11779105   0.07610176
