61
Energy:  -2132.52535811
O   -2.96706974  -1.05700745   1.51198785
H   -2.52101453  -1.37124804   2.29844793
H   -3.89093325  -1.25559385   1.66453783
O    1.72480604   1.69418408   3.59874202
H    1.78247975   2.50916178   3.10002673
H    2.55087657   1.64844529   4.08014338
O    0.74882890  -0.28360149   1.93383832
H    1.18083280   0.31221798   2.54588705
H    0.23568034  -0.86911007   2.49069567
O   -0.65504634   2.49468569   4.80061122
H   -0.52165814   3.01887328   5.59033700
H    0.21950345   2.18125221   4.57005976
O    3.29325996   1.27514871  -1.84692704
H    4.19302614   1.54501475  -2.03084272
H    2.87112887   1.24621898  -2.70553071
O   -1.05541733  -1.73658186   3.39014324
H   -0.92422086  -2.56934008   3.84350081
H   -1.36042461  -1.13772213   4.07173654
O   -0.29849918   0.58491967  -1.95196471
H   -1.12068699   0.29081680  -2.34406490
H    0.26564205   0.78480802  -2.69897285
O   -1.27817397  -2.54878629  -4.45908839
H   -1.63837008  -2.95267092  -5.24862485
H   -0.40375617  -2.25662494  -4.71651237
O   -0.73731341  -3.63376785  -1.99025446
H   -1.04153849  -3.34588828  -2.85095435
H   -1.14621048  -4.49016382  -1.86527060
O    1.31844344   3.84244173   1.90199181
H    1.62983193   4.74746404   1.88772024
H    0.37305510   3.91595574   2.03263801
O    1.89650900  -0.84015453  -0.76695670
H    2.61970359  -0.30711822  -1.09725008
H    1.97782823  -1.67129879  -1.23473684
O   -1.42579212   1.10794135   0.73503051
H   -1.49856521   1.92945862   1.22087543
H   -2.17817955   0.59118113   1.02330794
O   -1.37148427   3.37398631   2.29479672
H   -1.27203960   3.11505748   3.21092906
H   -2.08162422   4.01575996   2.30252222
O   -2.48934422  -0.52017664  -3.01657065
H   -3.35046648  -0.25929158  -3.34312736
H   -2.20842431  -1.21652712  -3.61021353
O    1.92269319  -3.07252906  -2.34633363
H    1.05530357  -3.45387132  -2.21052061
H    2.52657131  -3.80865101  -2.24790829
O   -0.86726947  -1.60341008  -0.14247925
H   -0.88992115  -2.33113152  -0.76388109
H   -1.70400923  -1.65609101   0.31938993
O    1.54058388   0.87971736  -3.95961890
H    1.52698395  -0.00279264  -4.33005512
H    1.44814183   1.45895074  -4.71604140
O    1.37895916  -1.76597381  -4.73412323
H    1.89778244  -2.08370937  -5.47310791
H    1.69831289  -2.26699296  -3.98364014
O   -1.99512302   0.10232321   5.10525581
H   -1.59961476   0.97390857   5.09325429
H   -2.52688661   0.09102450   5.90107720
O    1.37475138   1.85423524   0.05003811
H    2.12050092   1.95613585  -0.54132113
H    1.40896003   2.62639642   0.61468733
Ca   0.23266450   0.13484900  -0.01844924
