61
Energy:  -2139.05737709
O   -3.17913250  -0.49933035   1.23268139
H   -3.16617402  -0.58369243   2.18606849
H   -4.10303780  -0.58315273   0.99687500
O    1.26175258   1.31546869   4.09989413
H    0.37286143   1.40736604   4.44290907
H    1.78476945   1.05053114   4.85652700
O    0.73044506  -0.33723277   1.97699983
H    1.03059963   0.17811640   2.72570159
H    0.28754448  -1.09106676   2.36662173
O   -1.41621918   1.73302827   4.64677123
H   -1.49069117   2.39803195   3.96233286
H   -1.69374324   2.17969906   5.44658211
O    3.61382677   1.16681055  -1.52821955
H    4.54557142   1.35407526  -1.64230580
H    3.24986073   1.21241944  -2.41234647
O   -0.79279082  -2.25558258   3.06042731
H   -0.72806287  -3.10480805   3.49730058
H   -1.52044179  -1.81483621   3.49917387
O   -0.01394749   0.81085032  -1.89912490
H   -0.83366611   0.62493796  -2.35708758
H    0.61739872   0.98334521  -2.59760849
O   -1.13264750  -2.11884364  -4.56039389
H   -1.47834503  -2.46790278  -5.38190638
H   -0.22151168  -1.90090848  -4.75678032
O   -0.85375006  -3.33161572  -2.10556287
H   -1.07608667  -2.98707066  -2.97048309
H   -1.34474199  -4.15067907  -2.04003428
O    1.54177168   3.51054164   2.45487477
H    2.13006334   4.21584474   2.72448988
H    1.61708430   2.85643667   3.14964562
O    1.95488734  -0.85773250  -0.66865827
H    2.74590988  -0.38175193  -0.92155687
H    1.99600835  -1.67368702  -1.16741586
O   -1.24379096   1.35114376   0.72482664
H   -1.30328591   2.14847079   1.25109825
H   -2.07246867   0.89818953   0.88089576
O   -1.21810618   3.45637022   2.47269700
H   -1.67858370   4.28841707   2.36365414
H   -0.29100913   3.69440417   2.48061869
O   -2.22961185   0.00518342  -3.16600048
H   -3.00344690   0.38767075  -3.57966049
H   -1.97750332  -0.71302820  -3.74638414
O    1.86550227  -3.03124363  -2.32272424
H    0.95869901  -3.32509920  -2.23561170
H    2.38691325  -3.82679921  -2.21570204
O   -0.92637408  -1.36130541  -0.18836694
H   -0.98173537  -2.07344538  -0.82556679
H   -1.76262127  -1.38968801   0.27651682
O    1.97774501   1.00603160  -3.76755590
H    1.90027711   0.14418483  -4.17676333
H    1.99402782   1.61978121  -4.50191148
O    1.59453212  -1.57814422  -4.66896960
H    1.81838661  -2.13970162  -3.92682791
H    2.12252777  -1.91515064  -5.39276454
O   -2.80347821  -0.58285832   3.96580926
H   -2.37054044   0.21351891   4.27334794
H   -3.45189619  -0.77985965   4.64180959
O    1.62610456   1.84484144   0.28464840
H    2.42638954   1.93197368  -0.23321624
H    1.69985758   2.52285268   0.95628305
Ca   0.35344459   0.23816924   0.03990076
