61
Energy:  -2131.83513762
O   -2.91512917  -2.13562901   2.28977392
H   -3.71181268  -2.61923100   2.50807725
H   -3.04651330  -1.26977474   2.67612407
O    1.15089834   0.87296865   4.13594588
H    1.53887140   0.50674310   4.93067074
H    0.30960370   1.22906034   4.42169732
O    0.56323609  -0.66254312   1.95058878
H    0.81678035  -0.20782312   2.75381781
H    0.37510975  -1.55819705   2.23102482
O   -1.30424368   2.07643052   4.50060801
H   -1.56554353   2.50193900   5.31724549
H   -1.11430161   2.79978443   3.90318607
O    3.36578219   1.53623168  -1.92831034
H    3.66351443   0.62873932  -1.99191051
H    4.16382699   2.05736767  -2.01647857
O   -0.31184594  -3.08565064   2.64861189
H   -1.26406390  -2.99735679   2.69004880
H   -0.13759075  -3.96525863   2.98351003
O   -0.56628763   0.71515644  -1.76482448
H   -1.34685934   0.34625465  -2.17816590
H   -0.00508553   0.97069452  -2.49693399
O   -2.51873370  -2.86263582  -4.16453154
H   -2.69468187  -2.74423893  -5.09794263
H   -2.85848798  -3.73498929  -3.96503641
O   -0.05044980  -2.28112446  -3.00202514
H    0.62165207  -2.10946718  -3.66160434
H   -0.79652615  -2.61421290  -3.50067733
O    2.12698891   2.78969701   2.41738716
H    2.92558647   3.24919282   2.67688165
H    1.96702114   2.16720492   3.12671484
O    3.64474223  -1.18397883  -2.09860113
H    4.39343745  -1.77943602  -2.06516404
H    3.24863690  -1.34433591  -2.95511617
O   -1.18269597   1.43126285   1.05671742
H   -0.97842698   2.31502452   1.36244823
H   -1.91776930   1.15235289   1.60271035
O   -0.47621674   3.72272231   2.40449129
H    0.47728020   3.64270253   2.43041939
H   -0.63506314   4.65695152   2.26952664
O   -2.86271522  -0.75514465  -2.36574366
H   -2.76680617  -1.46669565  -2.99877484
H   -3.73486840  -0.39901303  -2.53530472
O    1.19782754  -1.35222827  -0.83240916
H    2.12636929  -1.38458776  -1.06261541
H    0.76043281  -1.84007985  -1.53020464
O   -1.61493499  -1.22876674   0.05085134
H   -2.09818959  -1.67415212   0.74678862
H   -2.19013354  -1.28155243  -0.71242590
O    1.27796388   1.32503987  -3.71516322
H    1.17357657   2.04465244  -4.33765249
H    2.05853219   1.55504711  -3.21113779
O    2.11758680  -1.24297409  -4.40769964
H    2.39918893  -1.36533038  -5.31432030
H    1.80615873  -0.33851367  -4.37312009
O   -3.01741209   0.58834321   2.90690940
H   -2.51236369   1.00857918   3.60301261
H   -3.90247957   0.93871682   3.00753609
O    1.58174298   1.38152926   0.13370457
H    2.24849309   1.52552773  -0.53781652
H    1.87290641   1.90846719   0.87787667
Ca   0.01346697   0.03650878   0.10005568
