61
Energy:  -2132.72434142
O   -3.17215210  -0.30301895   2.32497042
H   -2.75705479  -0.14192052   3.17230351
H   -4.02814792   0.11995087   2.39279030
O    0.81363132   0.36462676   3.85748734
H    1.34892049   0.06584088   4.59262293
H   -0.07868808   0.38556913   4.20326089
O    0.55425019  -1.12665250   1.58304987
H    0.70612132  -0.68691891   2.41959118
H    0.36605789  -2.03477296   1.81997337
O   -1.82025809   0.43044194   4.59695557
H   -2.09852380   1.32862525   4.41788356
H   -2.13610533   0.25349519   5.48304937
O    3.30711946   1.88353456  -1.88642463
H    3.56887299   1.04038340  -2.25630712
H    4.12448191   2.37555052  -1.80850952
O   -0.30181916  -3.61650799   2.07015887
H   -1.25502154  -3.60360779   1.98372588
H   -0.11024567  -4.45510997   2.49001380
O   -0.34793045   0.40883890  -2.13201902
H   -0.62301752  -0.16367192  -2.84811280
H    0.03631342   1.16985799  -2.56726428
O   -2.91025787  -2.88241088   1.38615304
H   -3.71136949  -3.40627594   1.39032737
H   -3.15184357  -2.07091071   1.83262328
O   -0.08620579  -3.42563334  -2.45578784
H   -0.09386609  -4.33981046  -2.73943087
H   -0.28616725  -2.92689391  -3.24794075
O    1.45355425   2.57077851   2.34272362
H    2.12648323   3.12305830   2.74070034
H    1.28030953   1.89422421   2.99731693
O    3.43041876  -0.66059039  -2.92221667
H    4.21119348  -1.15809438  -3.16534722
H    2.94600611  -0.55870761  -3.74148227
O   -1.34138538   0.81983686   0.64279838
H   -1.32502531   1.75819526   0.83107402
H   -2.04817192   0.47754435   1.19008302
O   -1.03705074   3.41378797   1.47889996
H   -0.15557379   3.33477097   1.84357318
H   -1.07078717   4.30168860   1.12291378
O   -0.59944068  -1.35430359  -4.22726013
H   -1.25458291  -1.38916405  -4.92425745
H    0.18616119  -1.01139317  -4.65325778
O    1.49752463  -1.55305412  -1.19493075
H    2.26427939  -1.30718759  -1.71249103
H    1.20743656  -2.38237289  -1.57481380
O   -1.28387155  -1.86808835  -0.55560570
H   -1.09649269  -2.56643925  -1.18284331
H   -1.91667167  -2.25333611   0.05051311
O    1.13585745   2.24187668  -3.56119912
H    0.96240304   3.11254554  -3.91908341
H    1.94307451   2.34593265  -3.05740867
O    1.71942810  -0.06468599  -5.01291051
H    1.98899969   0.04913445  -5.92428744
H    1.51493118   0.82027493  -4.71082273
O   -2.60542538   2.85231744   3.71143939
H   -3.09194663   3.60413188   4.04952809
H   -2.14469344   3.19026718   2.94348894
O    1.47862110   1.14949764   0.00481383
H    2.17352217   1.45573034  -0.57790898
H    1.57775537   1.67944172   0.79573957
Ca   0.08919876  -0.35800313  -0.26003428
