61
Energy:  -2131.42345422
O   -3.65274995   0.14713885   1.89796693
H   -3.28628443   0.51979481   2.69987865
H   -4.55203756   0.47388984   1.87062781
O    1.29688120  -0.47336161   5.99965981
H    1.55652620   0.02500364   6.77454587
H    1.44868054  -1.38733475   6.24016324
O    0.15430358  -0.95734039   1.35833069
H   -0.05625400  -1.87508054   1.53052353
H    0.24136431  -0.56408605   2.22666432
O    0.26892612   0.46960963   3.66256310
H   -0.61830058   0.74277650   3.89588798
H    0.63373713   0.11938516   4.47526698
O    3.30417452   1.82781418  -1.86308776
H    3.66117205   0.94756723  -1.98119755
H    4.07438232   2.38961619  -1.77712093
O   -0.78040193  -3.44567414   1.66222095
H   -1.73112927  -3.35427142   1.59901572
H   -0.64644597  -4.33027830   2.00246076
O   -0.55524268   0.81920172  -2.28765545
H   -1.19070258   0.40544309  -2.87180129
H    0.07513909   1.23582139  -2.87525967
O   -3.33784352  -2.49557188   1.07123761
H   -4.14245916  -3.01339605   1.09738450
H   -3.56611329  -1.67518704   1.50838001
O    0.34447152  -2.43074076  -3.78578596
H    1.02404270  -1.95439430  -4.26276491
H    0.43543366  -3.33712564  -4.07976587
O    1.44002514   2.55092264   2.35809358
H    2.17293484   2.97722156   2.80232825
H    1.17014443   1.85346384   2.95554440
O    3.70073600  -0.85631576  -2.28488827
H    4.48863623  -1.39581313  -2.21864884
H    3.42624269  -0.94347837  -3.19773434
O   -1.55865352   1.19670046   0.48952998
H   -1.44356853   2.05437965   0.89864329
H   -2.36466697   0.85316688   0.87496329
O   -1.17682318   3.40165008   2.08237016
H   -0.23391580   3.35062488   2.23906719
H   -1.35623732   4.33835853   2.00100869
O   -2.08100205  -1.09951592  -3.55663746
H   -2.75672675  -1.19227162  -4.22822093
H   -1.36193527  -1.65280623  -3.86166967
O    1.12637509  -1.30325677  -1.40769558
H    2.07507595  -1.23467029  -1.51490769
H    0.84113102  -1.85062518  -2.13930716
O   -1.74330900  -1.35843322  -0.84161773
H   -2.11136059  -1.47495820  -1.71751259
H   -2.32390345  -1.85938848  -0.26874273
O    1.46556997   1.71205769  -3.91208479
H    1.39685483   2.47289832  -4.48882703
H    2.17056411   1.93468272  -3.30409367
O    2.36955643  -0.79666351  -4.72217696
H    2.74400100  -0.82426697  -5.60266612
H    2.04767708   0.09967728  -4.62626700
O   -2.27938560   1.53534966   3.85474144
H   -2.63615775   1.85704854   4.68266373
H   -2.01913335   2.32604624   3.38219563
O    1.30655423   1.31411029  -0.07439258
H    2.03573860   1.57837064  -0.63536359
H    1.45438775   1.78179799   0.74758389
Ca  -0.19956013  -0.04846238  -0.44012454
