61
Energy:  -2134.13246522
O   -3.17259335  -2.00537751   1.44050871
H   -2.82422694  -1.60762928   2.23842414
H   -3.69126157  -2.74822706   1.74936090
O    1.31511474   2.49715630   3.92689078
H    0.40961387   2.26703881   4.13508771
H    1.63015797   2.95879644   4.70398022
O    2.62256456   0.25795082   2.95266124
H    2.29008228   1.05651520   3.36251770
H    3.08804565  -0.19633979   3.65492846
O   -1.39125752   1.88009690   4.15235176
H   -1.66425240   2.38786594   3.38823382
H   -1.90983281   2.23526928   4.87426872
O    3.67482862   0.35013471   0.36000751
H    3.57024791   0.32515614   1.31114934
H    4.61215128   0.48974209   0.22521931
O    0.30096756  -0.44529677   1.69113915
H    1.10906185  -0.30335292   2.18415782
H   -0.35592970  -0.64277675   2.35876142
O   -0.22833216   0.25361782  -2.33282921
H   -0.73049348  -0.19973007  -3.00998617
H    0.53306212   0.60564540  -2.79390098
O   -1.12420224  -1.37236783  -4.36988470
H   -1.71462921  -1.17904733  -5.09807082
H   -0.25360559  -1.39738157  -4.76695854
O   -0.97793359  -3.45372876  -2.58779197
H   -1.17614500  -2.84740396  -3.30145458
H   -1.48332790  -4.24012886  -2.79366407
O    0.89492919   3.73287690   1.48912341
H    1.32738190   4.58125872   1.39183627
H    1.15828109   3.42741349   2.35720735
O    1.68419814  -1.22386426  -0.75350758
H    2.56268414  -0.93572896  -0.50557160
H    1.83132594  -1.90509436  -1.40964080
O   -1.62588267   1.05993631   0.14053279
H   -1.74648450   1.84701372   0.67175422
H   -2.51433698   0.78384322  -0.08453029
O   -1.78687179   3.23195761   1.78292592
H   -2.39593932   3.95128634   1.61608835
H   -0.91997331   3.61657724   1.65336274
O   -4.03012779  -0.01068213  -0.33332284
H   -4.05331232  -0.73879535   0.28760024
H   -4.94143095   0.10406684  -0.60275015
O    1.76484670  -3.14193293  -2.71547804
H    0.85867888  -3.44893671  -2.68648820
H    2.29022864  -3.94143363  -2.68378738
O   -1.18374434  -1.76204459  -0.44499737
H   -1.20435922  -2.44342570  -1.11695471
H   -1.90717308  -1.98189088   0.14198671
O    2.06445226   0.84875156  -3.57332705
H    2.05480173   0.10516821  -4.17600650
H    2.49865234   1.54803726  -4.06189807
O    1.57687086  -1.50762720  -4.95847870
H    2.02687437  -1.82246829  -5.74244539
H    1.80121886  -2.14516044  -4.28065041
O   -1.70608151  -0.79465698   3.49917747
H   -1.71680841   0.11641757   3.79253724
H   -1.67607553  -1.30667260   4.30736773
O    1.25222429   1.55333023  -0.13871006
H    2.19652220   1.39742923  -0.12360403
H    1.13916307   2.38634088   0.31904781
Ca   0.01004979  -0.08935910  -0.32869881
