61
Energy:  -2132.43084294
O   -3.40357876  -0.71207145   1.57009711
H   -3.05569289  -0.80206453   2.45728847
H   -4.34692800  -0.84148779   1.66795147
O    2.90570976   3.13094730   3.00793792
H    2.32894069   3.63505781   2.43396764
H    3.59783894   3.74534779   3.25227601
O    0.36208940  -0.42041342   2.04514660
H   -0.31900074  -0.72062125   2.64699652
H    1.04148221  -0.05740862   2.61337610
O   -0.65014011   1.58421385   4.70263319
H   -0.70290340   1.89980702   5.60476889
H    0.27507579   1.37432384   4.57553649
O    3.22622066   0.74377520  -1.60349859
H    4.15863201   0.91346082  -1.73784033
H    2.85326582   0.74143298  -2.48504895
O    1.89616790   0.81469385   3.94247991
H    2.31948079   1.61993341   3.64477652
H    2.54119455   0.40290235   4.51745836
O   -0.43937370   0.44666277  -1.89691270
H   -1.26730972   0.22986779  -2.32557775
H    0.18140495   0.55896337  -2.61681150
O   -1.63033271  -2.65696792  -4.33073064
H   -1.99341633  -3.05548727  -5.12166962
H   -0.71917515  -2.46706587  -4.55425012
O   -1.33820561  -3.68344556  -1.79490212
H   -1.56546202  -3.40218174  -2.68117355
H   -1.84103199  -4.48698574  -1.66178321
O    0.94839103   4.07803263   1.28493927
H    0.90102488   4.97295018   0.94861968
H    0.13995887   3.96655060   1.78518026
O    1.53923674  -1.15743979  -0.57073830
H    1.55336081  -2.01110004  -1.00351601
H    2.33220185  -0.71888117  -0.87912851
O   -1.60056400   1.18862237   0.73298138
H   -1.57202126   1.95921145   1.30008774
H   -2.42954360   0.76185526   0.94953276
O   -1.33395871   3.20065700   2.56982492
H   -1.12267639   2.73020935   3.37621853
H   -2.02857696   3.80908946   2.82191077
O   -2.68579486  -0.44865457  -3.03889909
H   -3.49083027  -0.10617342  -3.42730159
H   -2.45375550  -1.19722571  -3.58847241
O    1.38315921  -3.44692001  -2.05567025
H    0.47284178  -3.72053504  -1.94302552
H    1.89343829  -4.24227401  -1.90316082
O   -1.33394408  -1.58240272  -0.02300131
H   -1.41260103  -2.32784665  -0.61828130
H   -2.17679356  -1.54646942   0.42926564
O    1.53423882   0.47112811  -3.79603033
H    1.43900998  -0.41719612  -4.13960476
H    1.54872085   1.02896456  -4.57374533
O    1.10475277  -2.16557490  -4.50120870
H    1.61726062  -2.56275056  -5.20535289
H    1.32956339  -2.67612320  -3.72337038
O   -1.72632077  -0.80333807   3.78257448
H   -1.49485873   0.01061904   4.22993451
H   -1.82164636  -1.44519949   4.48624969
O    1.26385839   1.61906143   0.14230292
H    2.07632934   1.60796473  -0.36366118
H    1.20893554   2.50973555   0.48859031
Ca  -0.03288216   0.01888606   0.06881044
