61
Energy:  -2134.70585020
O   -2.99096904  -0.85677814   1.47626513
H   -3.06267660  -1.15096172   2.38431023
H   -3.87516595  -0.95269144   1.12238901
O    1.64706992   3.93738917   1.78627260
H    0.77414226   3.89887322   2.17709950
H    1.86342059   4.86973245   1.77361436
O    1.26465739   0.00946717   1.77236333
H    0.69797239  -0.32870824   2.46571559
H    1.91948057   0.53464253   2.23239516
O    0.38602752   1.79952615   4.88489274
H    0.51139990   1.97434619   5.81760468
H    1.27195524   1.78149972   4.52289969
O    2.90197784   1.58212895  -2.44727413
H    3.72622727   1.90843695  -2.80833896
H    2.33190071   1.47553958  -3.20877437
O   -0.57557801  -0.50604288   3.64431358
H   -1.36368397  -0.92657750   3.98821977
H   -0.36898923   0.17580777   4.28355736
O   -0.58315979   0.63906688  -1.84341258
H   -1.43881501   0.27089765  -2.06372466
H   -0.17881660   0.82975952  -2.68980182
O   -1.71654654  -2.73406655  -3.87471345
H   -2.18097410  -3.23037728  -4.54866786
H   -0.93845014  -2.39667392  -4.31851979
O   -0.58035900  -3.64747460  -1.54135987
H   -1.07893027  -3.44101175  -2.33194928
H   -0.86149675  -4.53121203  -1.30429115
O    2.67581747   1.83920893   3.27934661
H    3.58360589   1.88297570   3.57974054
H    2.53045379   2.67309257   2.83242455
O    1.89047997  -0.57204459  -1.06388630
H    2.49081628   0.00026684  -1.54168103
H    1.98044828  -1.42409872  -1.49066647
O   -1.21958458   1.22349472   0.97739719
H   -1.17561762   1.94130673   1.60909703
H   -1.96999307   0.70074896   1.25998491
O   -0.79601908   3.20554232   2.83818107
H   -0.49145411   2.77198090   3.63536142
H   -1.46712323   3.81796447   3.13949517
O   -2.85422623  -0.66101566  -2.43082064
H   -3.71017017  -0.39720269  -2.76845139
H   -2.59660436  -1.40047008  -2.98133858
O    1.88322157  -2.90269928  -2.48855756
H    1.10785700  -3.34647714  -2.14489661
H    2.57148629  -3.56741314  -2.46249981
O   -0.67383094  -1.47092249   0.13063916
H   -0.67099337  -2.27321698  -0.39142152
H   -1.51090421  -1.48942011   0.59453358
O    0.83043737   0.92144326  -4.17285169
H    0.82310652   0.01627666  -4.48406149
H    0.56628404   1.43890974  -4.93356406
O    0.74304098  -1.78068462  -4.75345199
H    1.25624517  -2.20833218  -4.06790777
H    1.12122274  -2.10188270  -5.57201304
O   -3.06238149  -1.67875468   4.14239651
H   -3.69671411  -1.30199420   4.75223707
H   -3.02246957  -2.60523618   4.37961144
O    1.34217765   2.11421247  -0.21945705
H    1.95056659   2.26996052  -0.94184011
H    1.49121285   2.84423236   0.38145170
Ca   0.33644481   0.32033067  -0.02954475
