61
Energy:  -2130.39960321
O   -2.70027844  -0.81683004   2.21668586
H   -2.43746732  -0.70308977   3.13004521
H   -3.62054285  -1.07618862   2.26227523
O    1.85728763   2.18092167   3.44686607
H    1.80598875   2.93347075   2.85756975
H    2.70112672   2.27864676   3.88802051
O    1.13287444   0.05222617   1.87723774
H    1.49656320   0.73790029   2.43742819
H    0.94796318  -0.67261877   2.47443074
O   -0.63094135   2.23777114   4.67920466
H   -0.61343571   2.71159889   5.51071693
H    0.28657971   2.19042360   4.41060613
O    3.21266647   1.29906474  -2.04462671
H    4.09097790   1.53398359  -2.34398273
H    2.66890518   1.35272133  -2.83055067
O    0.26981043  -1.86263828   3.53824272
H    0.60267686  -2.60732088   4.03912157
H   -0.37729328  -1.45585248   4.11444923
O   -0.59815837   0.25492906  -1.85878159
H   -1.19339027  -0.35752520  -2.29102064
H   -0.13536236   0.68690983  -2.57672610
O   -1.34093547  -2.43295620  -5.61708160
H   -1.36834552  -3.33980062  -5.92222704
H   -1.58696158  -1.91443574  -6.38313613
O   -1.01711911  -3.60601598  -1.46503454
H   -1.53177629  -3.08250961  -2.07928280
H   -1.48327562  -4.44032277  -1.41153559
O    1.18422422   4.02618961   1.50057281
H    1.44058236   4.94128114   1.38603095
H    0.26506297   4.06572960   1.76479059
O    1.86493395  -0.80204667  -0.84896941
H    2.57270569  -0.30070909  -1.25387885
H    1.88473604  -1.64862741  -1.29522134
O   -1.34368020   1.13447355   0.88086997
H   -1.43478682   1.99663832   1.28658335
H   -1.99173337   0.58949520   1.32725267
O   -1.38751508   3.46527295   2.32246678
H   -2.12622334   4.06796185   2.40795388
H   -1.25550818   3.12064545   3.20566433
O   -2.19980250  -1.69585905  -3.06567066
H   -3.14447214  -1.55807926  -3.13529721
H   -1.92206157  -1.90902942  -3.95654115
O    1.59000928  -3.12785408  -2.25358992
H    0.74449680  -3.50149747  -2.00513248
H    2.17826039  -3.88094080  -2.30884273
O   -0.71753464  -1.61464157   0.37387819
H   -0.82876148  -2.40543554  -0.15385786
H   -1.34004523  -1.71701095   1.09376215
O    1.09685709   1.21801855  -3.79758788
H    1.11428449   0.32384423  -4.13873365
H    0.97367606   1.76775976  -4.57143727
O    0.92133105  -1.40804485  -4.34647051
H    0.27620337  -1.84266075  -4.90427974
H    1.24308925  -2.09950123  -3.76803159
O   -1.69851904  -0.32833737   4.73758441
H   -1.36449087   0.56655809   4.79938364
H   -2.12624460  -0.48353632   5.57972215
O    1.22172478   1.96223096  -0.29079399
H    1.98674812   2.01016504  -0.86409450
H    1.25912443   2.76639603   0.22703963
Ca   0.26343294   0.16298975   0.01596189
