61
Energy:  -2129.77210558
O   -3.21842326  -0.48831005   1.16814221
H   -3.34052944  -0.46434299   2.11721940
H   -4.09619365  -0.63802610   0.81694982
O    2.82313383   1.81849812   2.78982109
H    2.53334168   2.70693398   2.58261568
H    3.61724591   1.94032290   3.31018305
O    0.93025285   0.12307087   1.93448773
H    1.66135508   0.62872860   2.28949708
H    0.47059694  -0.20825976   2.70595925
O   -1.62834527   1.97067570   4.58716123
H   -1.59629538   2.34878627   5.46593143
H   -1.01144532   1.23942886   4.61789148
O    3.36087077   1.18415238  -2.03566647
H    4.25485069   1.43589357  -2.26730871
H    2.92568043   1.04337347  -2.87651277
O   -0.50681721  -0.58055978   4.15473508
H   -0.18399017  -1.19398178   4.81483205
H   -1.44763645  -0.75076506   4.10867893
O   -0.25137633   0.46538340  -1.98714419
H   -1.07655619   0.11798367  -2.32570508
H    0.30198569   0.56693048  -2.76155397
O   -1.23133705  -3.00711020  -3.91124965
H   -0.37126467  -2.74528085  -4.23981128
H   -1.60292987  -3.54305588  -4.61190138
O   -0.60000851  -3.71276700  -1.32821058
H   -0.93115786  -3.56280888  -2.21369606
H   -0.97958039  -4.55239918  -1.06902951
O    1.46845303   3.99709098   1.69110305
H    0.56590207   3.98321084   2.00960100
H    1.70590632   4.92433668   1.68315398
O    1.97684707  -0.76591842  -0.67901783
H    2.69151071  -0.27045104  -1.07901758
H    2.07826202  -1.65344432  -1.02288501
O   -1.29857360   1.38828088   0.61667612
H   -1.33016286   2.18112001   1.15206391
H   -2.13695304   0.95572933   0.77869747
O   -1.18681233   3.50280262   2.34429021
H   -1.33935004   3.05902029   3.17856914
H   -1.80492005   4.23367506   2.34470708
O   -2.46819044  -0.77286456  -2.84270879
H   -3.26141151  -0.51366103  -3.31158586
H   -2.17093784  -1.56361791  -3.29279975
O    2.03747535  -3.20913097  -1.89951193
H    1.18501085  -3.57276155  -1.66011910
H    2.66041319  -3.90913421  -1.70412574
O   -0.81584306  -1.40326876   0.14459948
H   -0.79111880  -2.23968718  -0.32018519
H   -1.70972843  -1.34223864   0.48146166
O    1.56208608   0.48865990  -4.04025673
H    1.54807277  -0.43795047  -4.27989959
H    1.46675556   0.95306837  -4.87180271
O    1.39369104  -2.24526693  -4.41886976
H    1.88924684  -2.65728104  -5.12661313
H    1.74953377  -2.63308593  -3.61936727
O   -3.25775014  -0.23770480   3.90531394
H   -3.01778290   0.64215754   4.19598529
H   -3.97304829  -0.49576139   4.48668062
O    1.44866644   2.02869773  -0.21221852
H    2.20475625   2.08213784  -0.79677323
H    1.53188417   2.79281290   0.35825029
Ca   0.33716545   0.30529818  -0.02210451
