61
Energy:  -2132.42722488
O   -3.33437779   0.27727282   1.78949617
H   -3.20558116   0.17503199   2.73246493
H   -4.27262094   0.43961782   1.69164043
O    1.79699361   0.86575339   4.04382928
H    2.33729403   0.47562662   4.73093073
H    1.01183642   1.16948048   4.49936182
O    0.57369542  -0.53005590   2.02797199
H    1.09726434  -0.13278247   2.72387519
H    0.01239250  -1.16011110   2.47985839
O   -0.61197085   1.91314869   4.90749811
H   -0.60596055   2.57971268   4.22055694
H   -0.67486240   2.40985022   5.72331923
O    2.23489026   1.56538042  -2.54202563
H    2.62429665   0.72588243  -2.78664293
H    2.53266773   2.17412148  -3.21803950
O   -1.23837512  -2.07881033   3.25146267
H   -1.30115868  -2.91776340   3.70802352
H   -1.75910073  -1.47673762   3.78305005
O   -0.30946963   0.74630076  -1.78782344
H   -0.94288513   0.41528446  -2.42456897
H    0.38071556   1.14258593  -2.31964513
O   -0.93011848  -2.99741065  -3.85493534
H   -0.08104420  -2.78299354  -4.24136776
H   -1.29499200  -3.66687881  -4.43365076
O   -0.61078646  -3.43050974  -1.15320486
H   -0.76286591  -3.39473281  -2.09756904
H   -0.62893274  -4.36403195  -0.94239966
O    2.39128036   2.92568332   2.31169696
H    3.17406609   3.45101676   2.47753764
H    2.39347631   2.26614085   3.00540494
O    2.96044235  -1.09805641  -2.77866225
H    3.85784738  -1.42667358  -2.83257710
H    2.51930845  -1.47912816  -3.53788360
O   -1.08085960   1.57729844   0.96248724
H   -0.86882652   2.34530364   1.49299817
H   -1.96466878   1.33267737   1.23684780
O   -0.27507947   3.54936439   2.68357129
H    0.67546991   3.54918431   2.57093165
H   -0.52273199   4.47250947   2.63157864
O   -1.90478069  -0.41442993  -3.69451062
H   -2.82546418  -0.34036238  -3.94568336
H   -1.70837474  -1.34778986  -3.77510708
O    1.21022355  -1.42155926  -0.70210064
H    0.78891516  -2.26875276  -0.84699462
H    1.90479659  -1.38336495  -1.35962731
O   -1.53471659  -1.12556763   0.11022477
H   -1.55425204  -2.02990439  -0.20286504
H   -2.31208668  -1.04615411   0.66305484
O    0.27090708   0.37657186  -5.23436785
H   -0.59749260   0.24004714  -4.85558712
H    0.11471429   0.93037463  -5.99931108
O    1.44871006  -2.03353697  -4.86430228
H    1.84736257  -2.37292055  -5.66563043
H    1.10122233  -1.17708155  -5.11323652
O   -2.59637823   0.01912931   4.43645236
H   -3.17709530  -0.03362442   5.19554167
H   -1.94587095   0.67871598   4.67732070
O    1.73022152   1.38131581   0.14966190
H    2.14664386   1.65263122  -0.66839204
H    2.09336917   1.97062383   0.81077587
Ca   0.11140189   0.11431991   0.12994814
