61
Energy:  -2131.03552977
O   -3.17815683   0.25816435   2.00330242
H   -2.93434794   0.20281876   2.92727533
H   -4.12192923   0.41762016   2.01326974
O    2.16716069   0.92092246   3.51680804
H    2.78693382   0.54890343   4.14427514
H    1.44477012   1.24361314   4.05556071
O    0.73749599  -0.57770527   1.71931863
H    1.33766085  -0.14179992   2.32431492
H    0.23447560  -1.17716749   2.27054217
O   -0.09622808   2.03088410   4.65544710
H   -0.04130263   2.56584253   5.44730221
H   -0.19352632   2.66414026   3.94428501
O    2.81152350   1.39283442  -2.84508354
H    2.75799709   0.49800773  -3.18072021
H    3.67304336   1.70274982  -3.12431072
O   -0.89356715  -1.98809227   3.31073324
H   -0.94985420  -2.82750046   3.76730471
H   -1.35158086  -1.37246367   3.88297158
O   -0.76235776   0.51018356  -1.95497566
H   -1.18213381  -0.06614867  -2.59361568
H   -0.50261973   1.28015382  -2.46085491
O   -1.79209904  -1.34568911  -3.70073976
H   -2.49480692  -1.07176623  -4.29014601
H   -1.07324813  -1.59235237  -4.28266971
O    0.08456182  -4.03765534  -0.87257889
H   -0.83086520  -3.99450163  -1.14891742
H    0.22499024  -4.95801810  -0.65021859
O    2.49111361   2.88309505   1.62175424
H    3.28558973   3.41563873   1.65965900
H    2.58585511   2.25917270   2.34146028
O    2.35042060  -1.27767694  -3.43907425
H    3.10301941  -1.84625135  -3.60201602
H    1.72143487  -1.51050398  -4.12200936
O   -1.05125151   1.49707406   0.82554568
H   -0.78058716   2.29419146   1.28115133
H   -1.89353035   1.26976921   1.21941206
O   -0.08528360   3.56506458   2.33654291
H    0.84008845   3.55498844   2.09196802
H   -0.34287744   4.48403809   2.26329705
O   -2.43078021  -3.11645167  -1.64616373
H   -3.23708503  -3.61144187  -1.79138458
H   -2.30481508  -2.62026999  -2.45497049
O    1.01467092  -1.53377697  -1.05870753
H    0.80130169  -2.46033264  -0.94825384
H    1.53834303  -1.50188520  -1.85932122
O   -1.64013168  -1.23460614   0.18285424
H   -2.00466748  -1.94585618  -0.34389892
H   -2.30383873  -1.06695742   0.85189736
O    0.31268954   2.53991894  -3.33597939
H    0.21747354   3.34405797  -3.84639703
H    1.25040435   2.34940207  -3.36100152
O    0.39959695  -1.97536679  -5.30268528
H    0.42145543  -2.89331012  -5.57311845
H    0.45774292  -1.48258233  -6.12122934
O   -2.13721788   0.14462819   4.55683320
H   -2.61144532   0.13640168   5.38826120
H   -1.45667534   0.80725002   4.67526469
O    1.59733970   1.25752087  -0.39128287
H    2.09416828   1.37926603  -1.20033870
H    1.99236475   1.87162708   0.22763604
Ca  -0.00225135  -0.01630400  -0.11606812
