61
Energy:  -2136.94309653
O   -2.89609302  -1.50683849   2.81918980
H   -3.72160778  -1.86845153   3.14166960
H   -2.90602241  -0.59353503   3.10556377
O    1.63458210   1.21054187   3.88559569
H    2.07234556   0.89803836   4.67738894
H    0.86757856   1.68471762   4.20667945
O    0.66253307  -0.48464345   1.97322505
H    1.04730469   0.02676087   2.68501734
H    0.41261606  -1.31367996   2.38123463
O   -0.63832259   2.70511121   4.34560411
H   -0.43801133   3.33396751   3.65231701
H   -0.76587836   3.24240085   5.12744886
O    3.03886706   1.09430662  -2.55091770
H    3.15160466   0.15127817  -2.67016288
H    3.88985450   1.46848187  -2.77905167
O   -0.38189408  -2.69624433   3.04714716
H   -1.30925690  -2.48717819   3.15904621
H   -0.25462485  -3.50012770   3.55093869
O   -0.73397850   0.61567027  -1.74431059
H   -1.53523426   0.18809666  -2.04663802
H   -0.29676245   0.90090119  -2.54663053
O   -1.46550330  -2.86626350  -3.84250327
H   -0.69186140  -2.45790680  -4.23103238
H   -1.82053612  -3.41874862  -4.53888229
O   -0.69945793  -3.64309801  -1.30080637
H   -0.98944634  -3.56753741  -2.20988786
H   -0.80162017  -4.57180384  -1.09271935
O    2.61579911   2.78539924   1.85095627
H    3.48238633   3.17282404   1.97408414
H    2.46769585   2.27145793   2.64478346
O    2.73773771  -1.62664180  -2.77311214
H    3.38706345  -2.32217461  -2.87723724
H    2.14388634  -1.73966299  -3.51527022
O   -0.95347241   1.68136173   1.01977682
H   -0.62720575   2.56296475   1.20021526
H   -1.65768762   1.55141561   1.65493570
O    0.13614404   4.00746739   2.00042705
H    1.07324459   3.82287299   1.93718684
H    0.05842731   4.93453665   1.77518372
O   -2.81384678  -1.08113793  -2.22556675
H   -3.72163102  -0.96718528  -2.50694623
H   -2.45668919  -1.73518553  -2.82630967
O    0.88403658  -1.55334994  -0.75682297
H    1.61399468  -1.63487204  -1.37062030
H    0.38795700  -2.36482237  -0.86475536
O   -1.75016604  -1.02368521   0.37681028
H   -2.28679527  -1.33742548  -0.35108254
H   -2.21431562  -1.31683137   1.16094186
O    0.69891558   1.14511128  -4.01583862
H    0.55959705   1.87595945  -4.61807042
H    1.57438163   1.29255312  -3.65799515
O    0.80448131  -1.53785046  -4.74939122
H    1.03244753  -1.65890471  -5.67113366
H    0.69334630  -0.59213984  -4.65186025
O   -2.66430135   1.26070428   3.11384497
H   -3.49306343   1.72036571   3.24836867
H   -2.04997965   1.69547270   3.70529838
O    1.66475435   1.22138517  -0.18687231
H    2.22081160   1.26516140  -0.96476422
H    2.10497913   1.77912189   0.45450413
Ca  -0.02146095   0.06920011   0.11888922
