61
Energy:  -2136.76771748
O   -3.56425848   0.35686823   1.61870252
H   -3.47722204   0.15095396   2.54943117
H   -4.50509151   0.47214539   1.48537497
O    1.56501341   0.80682075   3.87190410
H    2.10683974   0.47499307   4.58782760
H    0.74901268   1.07630685   4.29351043
O    0.58390095  -0.67445577   1.78600702
H    1.02470900  -0.23431160   2.51277605
H    0.00914190  -1.31433144   2.20605823
O   -0.91260052   1.72466844   4.66532888
H   -1.03826903   2.22516691   5.47151778
H   -0.94587930   2.37995236   3.96838745
O    3.22197769   1.56388780  -2.28500078
H    3.60349838   0.68666059  -2.31885690
H    3.96164084   2.15315593  -2.43296477
O   -1.50140942  -2.21502179   2.62817020
H   -1.58337367  -3.08833517   3.01136397
H   -1.98979835  -1.64537183   3.22248243
O   -0.49173779   0.54534374  -2.00077738
H   -1.38820358   0.46133792  -2.32562190
H    0.02955190   0.73419377  -2.78104950
O   -2.40507409  -2.72327309  -2.32326431
H   -2.97872080  -3.46560172  -2.51328931
H   -1.55093556  -2.98608110  -2.66620914
O    0.29879410  -3.19663203  -2.83233044
H    0.79679397  -2.76200633  -3.52466597
H    0.54391859  -4.11918314  -2.90336059
O    2.08071717   2.86160573   2.11370069
H    2.81558743   3.44351727   2.30754734
H    2.09074602   2.21813863   2.82227769
O    3.69520670  -1.14345699  -2.33248543
H    4.51618736  -1.63409263  -2.29376486
H    3.27942713  -1.43501488  -3.14387510
O   -1.22102454   1.31253778   0.74203256
H   -1.06864765   2.10796796   1.25223248
H   -2.11264217   1.04875134   0.96933535
O   -0.61728788   3.37134253   2.44164324
H    0.33286689   3.43872839   2.34731986
H   -0.93138452   4.27148663   2.35611114
O   -2.97390746  -0.03407324  -2.79998800
H   -3.00413022  -0.99079137  -2.80296408
H   -3.76426975   0.23246318  -3.26958105
O    1.30876255  -1.44307729  -0.99115948
H    2.22164108  -1.37081806  -1.26984073
H    0.95036983  -2.15234294  -1.52475927
O   -1.43624055  -1.47678175  -0.08336599
H   -1.79971210  -1.83868878   0.72480700
H   -1.90316778  -1.93437760  -0.78252037
O    1.22150277   0.94942950  -4.09064705
H    1.03465542   1.57477115  -4.79083826
H    1.96218341   1.33099627  -3.61944557
O    1.98111597  -1.69393988  -4.44663897
H    2.20243912  -1.91876195  -5.35035516
H    1.66383748  -0.79212204  -4.49450121
O   -2.75345414  -0.30518708   4.17916590
H   -2.15224088   0.39551908   4.43172348
H   -3.29818827  -0.44482383   4.95376138
O    1.59561630   1.32116983  -0.09554766
H    2.19792659   1.52350797  -0.81144810
H    1.85329465   1.91465936   0.60986278
Ca   0.05316364  -0.05158698  -0.11411808
