61
Energy:  -2134.36912857
O   -2.72702653  -0.00184955   2.40217558
H   -2.64037904   0.59501530   3.14546315
H   -3.39665261  -0.62911659   2.67488202
O    0.63931080   1.02055387   3.83759385
H    1.00032437   0.71937377   4.67137536
H   -0.24173915   1.32586760   4.05384913
O    0.54123658  -0.59937294   1.61812296
H    0.58077472  -0.12907071   2.45088006
H    0.41258961  -1.51505738   1.86551700
O   -4.50729002  -2.08014971   2.93114291
H   -5.41218276  -1.93331554   2.65575098
H   -4.58168213  -2.46634555   3.80381149
O    3.42085288   2.04467035  -1.95757120
H    3.82560898   1.17832744  -2.00063285
H    4.15887773   2.65414000  -1.94767604
O   -0.06460413  -3.16645362   2.08063709
H   -0.98465837  -3.34095153   1.88243893
H    0.24084553  -3.95993066   2.52032624
O   -0.37793443   0.73929404  -2.16808319
H   -1.00488592   0.24417082  -2.69535605
H    0.20655427   1.14502134  -2.80838794
O   -2.67829266  -3.19620619   1.15264420
H   -3.07970372  -4.00941455   0.84638748
H   -3.31493066  -2.83083961   1.76699848
O    0.69085642  -2.55298232  -3.38943818
H    1.32272402  -2.06990204  -3.92198737
H    0.84210602  -3.47160018  -3.61191658
O    1.55237747   3.04544927   2.21947545
H    2.25203556   3.58959332   2.58088611
H    1.37235781   2.40047112   2.90345494
O    3.96332078  -0.64203221  -2.13176411
H    4.78691129  -1.12181076  -2.04376953
H    3.67221274  -0.82672904  -3.02472270
O   -1.33008960   1.33948217   0.57305171
H   -1.32493790   2.24711931   0.87702561
H   -1.95443586   0.89728631   1.14827897
O   -1.12984907   3.71235304   1.94977152
H   -0.18029521   3.74468813   2.06610620
H   -1.38200547   4.62018751   1.78099485
O   -1.81811829  -1.37239564  -3.19667161
H   -1.07203978  -1.90171190  -3.47849245
H   -2.50095083  -1.55760485  -3.84139568
O    1.44912807  -1.17841095  -1.13115627
H    2.38736986  -1.05454892  -1.27465675
H    1.18363107  -1.80345200  -1.80574272
O   -1.38691496  -1.37109746  -0.48559840
H   -1.76485659  -1.54369919  -1.34792120
H   -1.85214787  -1.96496345   0.10356488
O    1.53491082   1.62684690  -3.92263747
H    1.39689013   2.32960515  -4.55770673
H    2.23774852   1.94832691  -3.35792371
O    2.57631664  -0.88249032  -4.52599451
H    2.93236709  -0.96529541  -5.41064317
H    2.20133374  -0.00219185  -4.49964537
O   -1.89101276   2.06822629   4.08603447
H   -2.33626488   2.49034177   4.82074593
H   -1.78817965   2.76350596   3.43623190
O    1.49853138   1.56269638  -0.07859488
H    2.19774550   1.82413858  -0.67774381
H    1.61372768   2.12739574   0.68565397
Ca   0.06392236   0.08282919  -0.25121838
