61
Energy:  -2129.82029892
O   -3.51712674   0.43197107  -0.15700270
H   -4.45648889   0.51994686   0.00452394
H   -3.45911349   0.04048867  -1.02855755
O    1.61067436   2.48336180   3.70529864
H    1.63533199   3.20814854   3.08055227
H    2.34026456   2.65483532   4.30072019
O    1.21222682   0.42614273   1.97455803
H    1.46534841   1.11889197   2.58468900
H    1.26917317  -0.37917881   2.48880134
O   -1.02072081   1.75122279   4.27878403
H   -1.28304409   1.88421227   5.18968037
H   -0.08623738   1.95809565   4.26551039
O    3.27931008   1.07662810  -2.20215038
H    4.16061529   1.27788356  -2.51683946
H    2.78801265   0.85134869  -2.99215536
O    1.00657693  -1.84058274   3.39186478
H    1.35661738  -2.42456306   4.06467272
H    0.08206268  -1.74013730   3.61861567
O   -0.36196401   0.33706777  -1.83569186
H   -1.24413458   0.12731571  -2.14230401
H    0.16940007   0.36075676  -2.63150773
O   -1.73021769  -2.99270831  -3.26502868
H   -2.18326769  -3.60321077  -3.84663361
H   -0.87818470  -2.85456039  -3.67877592
O   -0.86338598  -3.65055707  -0.73165189
H   -1.28119933  -3.50813202  -1.58099219
H   -1.26061358  -4.45618043  -0.40087540
O    1.22852888   4.15700905   1.52293607
H    1.51648536   5.06655527   1.44522773
H    0.30409350   4.21768883   1.76370367
O    1.96468416  -0.72971298  -0.59929428
H    2.66278111  -0.30337644  -1.09641564
H    2.00520558  -1.64766319  -0.86754282
O   -1.21729299   1.55053509   0.67475222
H   -1.35713391   2.34130050   1.19568065
H   -2.09859917   1.25270065   0.44930619
O   -1.38090849   3.69540509   2.33914907
H   -1.39437991   3.13801834   3.11720458
H   -2.09359651   4.31905126   2.47833635
O   -2.81275886  -0.51523378  -2.67712970
H   -3.35781228  -0.21410081  -3.40408744
H   -2.56970956  -1.41022131  -2.91410269
O    1.74407367  -3.28785069  -1.54702681
H    0.90404087  -3.58363308  -1.19618565
H    2.35526234  -3.99260443  -1.33254503
O   -0.68657776  -1.25952137   0.61181190
H   -0.83202054  -2.13113548   0.24388923
H   -1.13729044  -1.27713781   1.45607465
O    1.32314234   0.17801504  -3.98240990
H    1.23553896  -0.76299291  -4.13427017
H    1.20664612   0.57246337  -4.84674258
O    0.89343776  -2.55279133  -4.07489658
H    1.28355800  -3.07393975  -4.77663896
H    1.30472478  -2.88087381  -3.27524870
O   -1.61260996  -0.80540312   3.21425401
H   -1.46293469   0.06564404   3.58182169
H   -2.44107896  -1.08968554   3.60032973
O    1.45282978   2.12169300  -0.34739477
H    2.19197322   2.16643531  -0.95393987
H    1.50255485   2.93674640   0.15205215
Ca   0.38993880   0.41318307   0.09119053
