61
Energy:  -2134.13919979
O   -3.04847526  -0.40910888   1.91622069
H   -2.87983106  -0.28123588   2.84972991
H   -3.99210551  -0.56002696   1.86128857
O    1.67402892   2.09958420   3.56378974
H    1.78290975   2.82324454   2.94678689
H    2.46440487   2.12315309   4.10321742
O    0.88890225  -0.01051776   1.99853819
H    1.26370048   0.65758249   2.57247215
H    0.54841397  -0.67647644   2.59586441
O   -0.91359923   2.50779350   4.49023426
H   -0.93448139   3.01707098   5.30043932
H    0.01614347   2.34063195   4.33574361
O    3.45903852   0.79131747  -1.79224307
H    4.37782056   0.95755545  -2.00304235
H    3.01791322   0.77063961  -2.64148552
O   -0.38893323  -1.71953513   3.61544460
H   -0.21424269  -2.47553663   4.17595936
H   -1.04432349  -1.21213553   4.09423589
O   -0.38467602   0.20817317  -1.91249123
H   -1.13824865  -0.22687534  -2.31135577
H    0.20467743   0.38711797  -2.64520749
O   -0.86583663  -1.78515428  -5.29182326
H   -1.39209449  -1.87333605  -6.08649834
H   -1.50518386  -1.62983555  -4.59659448
O   -1.29099871  -3.50312250  -1.50382956
H   -0.38223885  -3.60782185  -1.78565472
H   -1.62577794  -4.39730403  -1.43604977
O    1.46171837   3.90959559   1.48354643
H    1.83905695   4.78222021   1.37230924
H    0.53013461   4.06856217   1.63557661
O    1.79411605  -1.07896790  -0.60571928
H    2.59354306  -0.67584231  -0.94430170
H    1.74430706  -1.92451456  -1.05159120
O   -1.32047226   1.30355017   0.68779902
H   -1.35280252   2.19072634   1.04571668
H   -2.07728728   0.86171073   1.07281954
O   -1.23587588   3.69736973   2.01753812
H   -1.25091445   3.38580359   2.92248686
H   -1.89986927   4.38626557   1.98984080
O   -2.34236567  -1.40179984  -2.96899244
H   -3.29624700  -1.40056661  -3.04862124
H   -2.13809584  -2.23481384  -2.54402967
O    1.40219088  -3.33912846  -2.09864656
H    1.96638566  -4.11003707  -2.03851322
H    1.53602666  -3.01260470  -2.98842298
O   -0.97798527  -1.52167835   0.35096278
H   -1.13721762  -2.29973239  -0.18336746
H   -1.68835038  -1.52165507   0.99253371
O    1.59113988   0.49766536  -3.80482331
H    1.68595900  -0.39093741  -4.14779021
H    1.48398075   1.04499633  -4.58275491
O    1.69368165  -2.13997060  -4.54533058
H    0.80466647  -2.10081060  -4.89796402
H    2.22189807  -2.48716781  -5.26413052
O   -2.28266836   0.08776628   4.51676943
H   -1.85380838   0.94077655   4.58521245
H   -2.81883843   0.02461036   5.30719010
O    1.44338915   1.76677654  -0.21417850
H    2.24722746   1.71149580  -0.73091815
H    1.52743155   2.58615970   0.27344837
Ca   0.24192107   0.11262659   0.05160930
