61
Energy:  -2130.75461267
O   -3.40622938   0.42316649   1.45792784
H   -3.13255544   0.13360530   2.32826614
H   -4.25928347   0.83385766   1.59886515
O    1.08031248   2.70849635   4.05654291
H    0.29163145   2.38603652   4.49270084
H    1.51812934   3.24448020   4.71780651
O    2.33432897   0.60109960   2.81220945
H    1.98747044   1.34900142   3.29858777
H    3.10607443   0.32894424   3.30876987
O   -1.35109030   1.80971502   4.99078637
H   -1.87241945   2.39119688   4.43731856
H   -1.66012734   1.98381654   5.87984015
O    3.65742955   0.38915611  -1.90561513
H    3.14951758   0.60410628  -2.68795374
H    4.48937873   0.84688591  -2.02634558
O    0.11639502  -0.78470987   1.94403518
H    0.88236677  -0.50742125   2.44665845
H   -0.59428171  -0.81130691   2.58470907
O   -0.18974824   0.29547548  -2.02205197
H   -0.95623589   0.02309675  -2.52656992
H    0.46482610   0.52109900  -2.68300454
O   -0.88063316  -3.03981187  -4.26008193
H   -1.11222048  -3.59679868  -5.00329446
H    0.01540603  -2.75674620  -4.44234393
O   -1.21246957  -3.59383917  -1.57485088
H   -1.16303036  -3.51562053  -2.52756776
H   -1.48836962  -4.49762280  -1.42225282
O   -0.15635795   3.73814266   1.80937656
H    0.19678983   4.58106473   1.52477004
H    0.36654820   3.50561388   2.57666489
O    3.10842969  -2.31326506  -2.15204724
H    3.51476239  -1.45126513  -2.06214887
H    3.81931751  -2.93223108  -1.98545967
O   -1.00929364   1.44999668   0.56463446
H   -0.70534800   2.29520899   0.89548950
H   -1.91335825   1.38304109   0.87190628
O   -2.56997102   3.37882344   3.15350057
H   -3.18437926   4.11180313   3.19190794
H   -1.83893133   3.70568264   2.62911915
O   -2.22504850  -0.78561390  -3.38827590
H   -1.88385570  -1.56608878  -3.82494314
H   -2.99568652  -0.54140911  -3.90083116
O    0.82971855  -2.03333711  -0.65938376
H    0.24604815  -2.74389589  -0.92521628
H    1.65542880  -2.22138481  -1.10555916
O   -1.87134976  -1.21342255  -0.16924595
H   -2.11153512  -1.99282583  -0.67031816
H   -2.69414956  -0.91354541   0.21715544
O    1.77915448   0.58813467  -3.90310343
H    1.73827965  -0.28691717  -4.28890827
H    1.72719142   1.18293718  -4.65126228
O    1.72252940  -2.09744010  -4.55576160
H    2.21810622  -2.43880538  -5.30014404
H    2.25001364  -2.32699622  -3.79071506
O   -1.99572153  -0.50140413   3.66500531
H   -1.78851016   0.25468526   4.21420849
H   -2.31927264  -1.16169678   4.27783493
O    1.80698693   0.61454107   0.10173595
H    2.53177965   0.64181300  -0.52289482
H    2.21890280   0.75822853   0.95374011
Ca  -0.05138031  -0.26803821  -0.05075405
