61
Energy:  -2134.60463386
O   -3.24009939  -1.27556569   1.31292910
H   -2.89014862  -1.21343501   2.20169571
H   -4.14424397  -1.56686138   1.43083265
O    1.41747232   2.45420237   3.87686398
H    0.52646584   2.22761355   4.14331624
H    1.78020354   2.92442012   4.62756578
O    2.70787586   0.19996248   2.89046523
H    2.39666614   1.02710610   3.25817952
H    3.12059632  -0.25015161   3.62754797
O   -1.27885937   1.85891344   4.25824786
H   -1.63968125   2.32762044   3.50568346
H   -1.75221126   2.21311973   5.01104780
O    3.96829306  -0.31464460   0.43764205
H    3.70035909  -0.07589438   1.32502110
H    4.82305745  -0.73087018   0.54884437
O    0.35444888  -0.44752258   1.68061674
H   -0.27396693  -0.65464620   2.37229964
H    1.18129687  -0.30679270   2.14186434
O   -0.52361722   0.20510851  -2.28935231
H   -1.44809150   0.15024345  -2.53136260
H   -0.05177953  -0.01287149  -3.09314691
O   -1.89889624  -2.20960908  -4.60598157
H   -2.22738342  -2.49416663  -5.45883268
H   -1.08648280  -1.74413390  -4.80485112
O   -0.97632610  -3.66038998  -2.46354906
H   -1.39244200  -3.26327474  -3.22864963
H   -1.31304079  -4.55622280  -2.44514727
O    0.67757452   3.74229639   1.55529875
H    1.08709453   4.59757252   1.42480758
H    1.05069493   3.42024607   2.37584527
O    1.65864567  -1.08854284  -0.84330010
H    2.53190040  -0.93143900  -0.48416723
H    1.79309083  -1.75277620  -1.51928116
O   -1.80581387   0.84004359   0.29323040
H   -1.94337088   1.66547173   0.75796507
H   -2.54918518   0.29391105   0.54890635
O   -1.96135896   3.07578174   1.86885308
H   -2.60529635   3.77404631   1.75051853
H   -1.11596286   3.50310372   1.73125509
O   -3.06895247  -0.36774757  -2.88522115
H   -3.89061892   0.03100089  -3.17174475
H   -2.88018317  -1.03150727  -3.54856198
O    1.64523735  -2.90309730  -2.89245243
H    0.80932158  -3.35346884  -2.77144769
H    2.26296635  -3.59947665  -3.11538411
O   -1.13347663  -1.87347581  -0.38415094
H   -1.16051812  -2.55782576  -1.05285548
H   -1.94924194  -1.98302839   0.10447677
O    3.36493959   1.73895224  -1.37368132
H    3.86556688   1.13477291  -0.82543730
H    4.02890480   2.23185284  -1.85579236
O    0.58549672  -0.93371475  -4.53493800
H    1.10922984  -0.59366944  -5.26040658
H    1.12583075  -1.62493636  -4.15220617
O   -1.62116158  -0.78675766   3.53945079
H   -1.58529707   0.09956509   3.89914174
H   -1.63894283  -1.35710076   4.30797172
O    0.96281681   1.66851113  -0.19938828
H    1.78245280   1.79925117  -0.67618565
H    0.88116980   2.44463674   0.35486315
Ca  -0.07050374  -0.10321359  -0.31768173
