61
Energy:  -2135.02499492
O   -3.27514830  -0.16989600   1.48334398
H   -3.15591971  -0.14924556   2.43286489
H   -4.22141792  -0.24776949   1.36192987
O    1.59443333   1.88585713   3.58430433
H    1.75803520   2.66226163   3.04889577
H    2.37256211   1.80652347   4.13607749
O    0.74252116   0.01055705   1.77841598
H    1.14744751   0.59622452   2.41815039
H    0.33509141  -0.67633558   2.30606299
O   -1.00106683   2.31135147   4.49679842
H   -1.01660391   2.71087455   5.36649478
H   -0.07806424   2.11121694   4.34109279
O    1.74728446   2.17404715  -3.00907206
H    2.28354845   1.42510181  -3.26932895
H    1.92169101   2.83759177  -3.67654696
O   -0.65951871  -1.74205870   3.24205758
H   -0.53920463  -2.52008116   3.78651825
H   -1.34672742  -1.24362344   3.68425473
O   -0.46331764   0.80895322  -2.06567165
H   -1.04467193   0.31626676  -2.64491175
H    0.06366880   1.34745650  -2.65603710
O   -0.66707264  -3.14443911  -4.11347956
H   -0.87568838  -3.69238645  -4.87009376
H    0.27855617  -3.00722828  -4.16997017
O   -1.05794808  -3.59668351  -1.42072497
H   -1.04965028  -3.49415144  -2.37238151
H   -1.65825174  -4.32539278  -1.26308565
O    1.55002850   3.91345808   1.71308864
H    1.98996995   4.76347627   1.72543568
H    0.62802313   4.11814816   1.86878037
O    1.60094151  -0.83387688  -0.90069564
H    2.18852707  -0.59373810  -1.61715110
H    1.68343472  -1.78497993  -0.83119955
O   -1.37352774   1.58778583   0.63193255
H   -1.37123031   2.42895894   1.08871956
H   -2.19087856   1.16977247   0.90292022
O   -1.16921163   3.82649678   2.19508874
H   -1.22886720   3.41200437   3.05582628
H   -1.79219246   4.55215214   2.23447195
O   -1.97097034  -0.76367845  -3.61779413
H   -2.71043425  -0.62236880  -4.20894264
H   -1.57974840  -1.58518517  -3.91495394
O    1.68083489  -3.55973702  -1.17339765
H    0.74715441  -3.77054663  -1.17904700
H    2.08648149  -4.27961953  -0.69022908
O   -1.17936681  -1.20423915  -0.05589046
H   -1.23520904  -2.03921187  -0.52057751
H   -1.97553425  -1.17101655   0.47443539
O    3.03410567  -0.28637759  -3.16101043
H    2.72877725  -1.09438538  -3.57347838
H    3.98026299  -0.28560491  -3.30598484
O    2.07362420  -2.81211226  -3.82789568
H    2.62962001  -3.39516787  -4.34475801
H    2.07476556  -3.19480207  -2.95052514
O   -2.57030725   0.03825778   4.14655773
H   -2.07899772   0.83772247   4.33551007
H   -3.15050788  -0.07060441   4.90004834
O    1.38589573   2.02187034  -0.25938667
H    1.56328788   2.74460574   0.34262447
H    1.69647313   2.33533313  -1.10880683
Ca   0.12191398   0.39255532  -0.14393398
