61
Energy:  -2138.12855676
O   -3.15219732  -0.39989944   1.87182205
H   -2.98061032  -0.37048129   2.81305758
H   -4.06778013  -0.67049449   1.80313228
O    1.54983637   2.34979264   3.55618617
H    1.54978142   3.08636910   2.94488677
H    2.32789987   2.48655625   4.09669032
O    1.08795569   0.20258502   1.91879856
H    1.35828837   0.89948892   2.51669240
H    0.79098807  -0.50388984   2.49232743
O   -1.07366752   2.35736979   4.47837434
H   -1.17565893   2.84886079   5.29339962
H   -0.12891433   2.33943914   4.32556154
O    3.12450533   1.43527673  -2.25615788
H    3.96910943   1.76849028  -2.55921645
H    2.64332772   1.23526713  -3.05908759
O   -0.29065467  -1.81818985   3.12043811
H   -0.03107290  -2.56593369   3.65870226
H   -0.94770555  -1.36114990   3.64544331
O   -0.34822420   0.29048771  -1.93881789
H   -1.18360725  -0.08274111  -2.22000689
H    0.12849121   0.45231005  -2.75293569
O   -1.26030538  -3.12265070  -3.95205624
H   -1.63109631  -3.66879548  -4.64521697
H   -0.43547537  -2.80060818  -4.31561631
O   -0.48723222  -3.77320835  -1.39117418
H   -0.82193200  -4.63137260  -1.13086278
H   -0.86598499  -3.62040087  -2.25686931
O    1.09217823   4.14435728   1.50568249
H    1.34305517   5.06428164   1.42182679
H    0.14720860   4.16611422   1.65664901
O    2.08266418  -0.63281326  -0.75769147
H    2.71316799  -0.08894184  -1.22981506
H    2.18761449  -1.50561593  -1.13641668
O   -1.33318225   1.16570941   0.68554509
H   -1.48030151   2.03858859   1.04978363
H   -2.06205379   0.64130682   1.01717750
O   -1.54603463   3.54651086   2.02593144
H   -1.53013963   3.21063355   2.92212652
H   -2.31643900   4.11379011   1.99587777
O   -2.54871559  -1.01177978  -2.71245128
H   -3.45559684  -0.86965978  -2.98374474
H   -2.25737967  -1.76100760  -3.23207893
O    2.08971729  -3.05786456  -2.03161179
H    1.26383430  -3.46825998  -1.77524344
H    2.74878241  -3.73815040  -1.89349521
O   -0.45710789  -1.60336036   0.31371849
H   -0.60308059  -2.36471728  -0.24776121
H   -0.67013316  -1.91062812   1.19487603
O    1.27317270   0.54887419  -4.12687485
H    1.31736109  -0.37177099  -4.38512216
H    1.04869484   1.01372521  -4.93294872
O    1.29180171  -2.17930366  -4.53961191
H    1.69634082  -2.53461929  -3.74820129
H    1.79494594  -2.56148726  -5.25864836
O   -2.12168598  -0.21972877   4.43113403
H   -1.80033997   0.67711287   4.52410534
H   -2.57448133  -0.39905183   5.25517981
O    1.28204664   2.08762348  -0.28949294
H    1.97311648   2.20805040  -0.94076222
H    1.29727952   2.89258067   0.22823645
Ca   0.36823994   0.25702900  -0.01708960
