61
Energy:  -2133.95909630
O   -3.29177704  -0.12330119   2.05182256
H   -2.84612542  -0.45407174   2.83170546
H   -4.19336579   0.02681392   2.33613754
O    2.05702256   0.80503565   3.60019518
H    2.82983504   0.49866051   4.07467067
H    1.37275906   0.86167957   4.26713355
O    0.43313927  -0.63027424   1.91847201
H    1.12587608  -0.23190008   2.44539287
H   -0.18936963  -0.97278996   2.55987476
O   -1.57414413   2.84254137   4.16275371
H   -1.26352935   3.29558976   3.37885482
H   -2.16440706   3.46782164   4.58328445
O    3.05805322   1.06192702  -2.39464469
H    3.22506821   0.12953983  -2.53245603
H    3.90252304   1.48322223  -2.55468506
O   -1.44246300  -1.15476039   3.84742960
H   -1.59914352  -1.92780064   4.38973196
H   -1.07159302  -0.51007139   4.44997703
O   -0.73136564   0.34727111  -1.91350472
H   -1.50005346  -0.08271697  -2.28828617
H   -0.25249908   0.68509995  -2.67033386
O   -1.11544012  -3.11061553  -4.06074992
H   -0.34219786  -2.65612476  -4.39506473
H   -1.35320057  -3.72339325  -4.75659854
O   -0.85711507  -3.65812419  -1.36858656
H   -0.98681567  -3.59037236  -2.31453544
H   -0.91654174  -4.59562193  -1.18474338
O    2.08409936   2.90704479   1.82600611
H    2.82868243   3.49925672   1.93142399
H    2.16536589   2.28784633   2.55141693
O    2.91369892  -1.66739654  -2.71297447
H    3.61975274  -2.30696252  -2.80611521
H    2.38151635  -1.78105015  -3.50043648
O   -1.31750431   1.34599570   0.80038412
H   -1.14381442   2.24736018   1.07168792
H   -2.11830947   1.10524809   1.26619902
O   -0.54137641   3.78166768   1.76557762
H    0.40770400   3.67686027   1.83261226
H   -0.66320185   4.68662649   1.47845400
O   -2.70828367  -1.15388041  -2.92579404
H   -3.58312348  -1.06100485  -3.30296942
H   -2.30241615  -1.85797371  -3.43151732
O    0.95601093  -1.70150970  -0.79890246
H    0.47928866  -2.51530102  -0.96233875
H    1.71357161  -1.74584516  -1.38231315
O   -1.73337592  -1.43631598   0.16271889
H   -1.89762945  -2.24755116  -0.31806183
H   -2.53445823  -1.28891482   0.66548312
O    0.84120141   1.02577635  -4.04948094
H    0.69437807   1.76257805  -4.64260657
H    1.67755996   1.22091913  -3.62680434
O    1.12219621  -1.63620517  -4.81190616
H    0.94803179  -0.70086183  -4.70687551
H    1.40307582  -1.72725615  -5.72242701
O   -0.14298833   0.82233632   5.24569238
H   -0.65724010   1.57038007   4.94203548
H   -0.12530857   0.91410603   6.19831906
O    1.47229380   1.13208205  -0.16387536
H    2.09354726   1.19583511  -0.88927975
H    1.76201710   1.79821727   0.45946734
Ca  -0.14119000  -0.14187459  -0.00528270
