61
Energy:  -2131.34171146
O   -3.63663747  -0.72216629   1.38904827
H   -3.31071597  -0.93303002   2.26400170
H   -4.58221765  -0.85969141   1.44558852
O    0.36085728   2.76848165   4.28887082
H    1.03503516   2.11084846   4.11788947
H    0.72553880   3.30956025   4.98920872
O    2.11486328   0.74218343   3.46901568
H    2.75866399   1.04576602   2.82902341
H    2.63223162   0.28285718   4.13051493
O   -2.04829634   1.43205071   4.62165790
H   -1.23351150   1.93440268   4.62178300
H   -2.59415656   1.85995859   5.28132700
O    3.70546858   0.29329114  -1.13469319
H    4.55222037  -0.05234561  -1.41714407
H    3.28202860   0.58138126  -1.94335536
O    0.02601581  -0.40913473   2.08515122
H    0.74249480  -0.11982081   2.65011773
H   -0.63951864  -0.73652635   2.69022185
O   -0.36813999   0.76160850  -1.83201939
H   -1.11500051   0.63846654  -2.41790954
H    0.37880588   0.88430727  -2.41789372
O   -1.32171032  -2.07956817  -4.69131779
H   -1.56619768  -2.39358535  -5.56186417
H   -0.37950280  -1.92106553  -4.74922926
O   -1.50287119  -3.28612613  -2.22297099
H   -1.57549839  -2.92535413  -3.10660027
H   -2.08032441  -4.04951435  -2.22721998
O    0.96945773   1.80727778   0.51151576
H    0.55340221   2.58371490   0.88604887
H    1.89542242   1.89937082   0.73588179
O    1.40203640  -0.97052733  -0.41586712
H    2.27558471  -0.62505271  -0.59969443
H    1.37643343  -1.81255462  -0.87036285
O   -1.85433972   1.30489148   0.70438387
H   -1.80218078   2.14757216   1.15538340
H   -2.69241518   0.93535806   0.98242419
O   -0.64959112   3.55374053   1.84153591
H   -0.35914991   3.42040664   2.74380961
H   -0.87791454   4.48227398   1.79765094
O   -2.41299685   0.12608060  -3.43084980
H   -3.15761689   0.52673443  -3.87945803
H   -2.15981963  -0.60614252  -3.99297296
O    1.22551235  -3.19688270  -2.00287439
H    0.29358977  -3.40616647  -2.06574304
H    1.64951881  -4.03818093  -1.83355912
O   -1.51980266  -1.39789521  -0.22520260
H   -1.60956715  -2.05770542  -0.91282507
H   -2.36950050  -1.39342998   0.21550761
O    1.97029957   0.75543777  -3.28025404
H    1.83521163  -0.06759659  -3.74993217
H    2.12874189   1.40138249  -3.96864587
O    1.42601119  -1.73232908  -4.35433015
H    2.00254947  -2.12770766  -5.00817359
H    1.47911231  -2.32012700  -3.60073495
O   -2.10676152  -1.08171778   3.64700445
H   -2.15233440  -0.23213210   4.08559211
H   -2.22089252  -1.72117418   4.35007022
O    3.57429309   1.70648562   1.27017599
H    3.84697599   1.24110206   0.47942064
H    4.24243262   2.38057857   1.39435373
Ca  -0.23540495   0.17236854   0.12359258
