61
Energy:  -2130.26612146
O   -3.16264496  -1.20801583   1.73617594
H   -2.77478180  -1.14456961   2.60896950
H   -4.06718487  -1.47810131   1.89458437
O    1.34792569   2.76897974   4.30546262
H    0.46905635   2.48437943   4.55610818
H    1.68054722   3.22815933   5.07666225
O    2.60735895   0.63636918   3.07268658
H    2.30777564   1.37726062   3.59952769
H    3.42668857   0.36385259   3.48580342
O   -1.30988524   1.98538096   4.56519718
H   -1.60208292   2.45203091   3.78219642
H   -1.84678611   2.34326477   5.27222510
O    3.31821574   0.73420567  -1.59456444
H    4.21806246   1.04164552  -1.48507255
H    3.31915954   0.28534726  -2.43999752
O    0.42761906  -0.46462202   1.98054498
H    1.23946934  -0.17223717   2.39484207
H   -0.16590359  -0.63772459   2.71129679
O   -0.57685579   0.19972747  -1.94736362
H   -1.50058287   0.06259220  -2.15749225
H   -0.13584615   0.20595542  -2.79689499
O   -1.61603171  -2.00884345  -4.45096498
H   -1.88421268  -2.30919405  -5.31935448
H   -0.90184049  -1.39424126  -4.61956775
O   -0.87399265  -3.51916012  -2.27966312
H   -1.18101788  -3.06682333  -3.06538494
H   -1.28006643  -4.38466872  -2.32689450
O    0.90979974   3.68703387   1.74723205
H    1.30880059   4.54336357   1.59318782
H    1.17997921   3.45260379   2.63508195
O    1.64311062  -1.16170062  -0.60806099
H    2.41345106  -0.64259823  -0.83901589
H    1.75280120  -1.98142163  -1.08999178
O   -1.72084217   0.86247308   0.64920426
H   -1.82630866   1.70878984   1.08378063
H   -2.45549500   0.33688727   0.96586911
O   -1.76676453   3.17687889   2.10269752
H   -2.35667087   3.91440919   1.94684049
H   -0.89142556   3.53372079   1.95210737
O   -3.06918344  -0.55038643  -2.56869067
H   -3.95371367  -0.25655333  -2.78663612
H   -2.80592634  -1.09171507  -3.31292911
O    1.87746525  -3.23560686  -2.36021885
H    0.95334513  -3.47423881  -2.43294189
H    2.33515458  -4.07181464  -2.27356497
O   -1.13197868  -1.88852258  -0.05837422
H   -1.18511229  -2.52843772  -0.76824554
H   -1.93947928  -2.01510239   0.43977454
O    0.46330819  -0.13383718  -4.46001815
H    1.36386482  -0.43934738  -4.35096256
H    0.51505083   0.52260438  -5.15474040
O    2.94970459  -1.04452629  -3.74278493
H    2.68611063  -1.88819394  -3.37539554
H    3.62860114  -1.26245595  -4.38140688
O   -1.49943182  -0.69374644   3.90928487
H   -1.48756268   0.20396948   4.24124434
H   -1.44418086  -1.24024340   4.69319829
O    1.10884367   1.57428896  -0.00358221
H    1.90665186   1.64698895  -0.52746067
H    1.12939449   2.33861891   0.57227301
Ca  -0.03719500  -0.14467015   0.00828460
