61
Energy:  -2136.66674410
O   -1.75804087  -2.05906743   2.87626229
H   -2.12624484  -1.20959915   3.11928766
H   -2.39165929  -2.69768486   3.20325972
O    1.41075194   2.27652898   3.64207889
H    1.60658544   2.98781542   3.03219965
H    2.10679950   2.32386697   4.29744807
O    1.12349436   0.12531075   1.97057856
H    1.29743307   0.81093865   2.61547510
H    1.21095714  -0.69249750   2.46024352
O   -1.28008564   2.71093277   4.16548516
H   -1.44994442   3.07910614   5.03256543
H   -0.33828144   2.54012827   4.15757773
O    3.12844367   1.17528350  -2.22234127
H    2.60319576   1.04988645  -3.01267162
H    3.99644881   1.41534171  -2.54664203
O    1.00930746  -2.21798854   3.25276695
H    1.41153450  -2.82564672   3.87340919
H    0.06808633  -2.36002641   3.35356311
O   -0.47569468   0.43307390  -1.80020075
H   -1.34327095   0.12669451  -2.06416085
H   -0.00377308   0.55611095  -2.62384129
O   -1.70247512  -2.85249021  -3.89015153
H   -2.13744736  -3.35161476  -4.58145876
H   -0.85627379  -2.60943088  -4.26578078
O   -0.92190134  -3.59185302  -1.35842321
H   -1.30620845  -3.40152980  -2.21417841
H   -1.32165123  -4.42066713  -1.09479651
O    1.51348456   4.07384372   1.54670967
H    1.95319271   4.92205411   1.48816299
H    0.58098241   4.28825160   1.57318340
O    1.88456041  -0.79311695  -0.74446026
H    2.56456179  -0.30702287  -1.21087480
H    1.91206284  -1.67046450  -1.12621510
O   -1.22641038   1.37742497   0.89266468
H   -1.28338569   2.32933320   0.97546795
H   -1.82671808   1.04224253   1.55863408
O   -1.23328304   4.00928225   1.71020646
H   -1.37834093   3.73354075   2.61527920
H   -1.86653908   4.71311002   1.56933379
O   -2.78485229  -0.68971457  -2.54542893
H   -3.68444003  -0.46960605  -2.78735037
H   -2.56298864  -1.43705828  -3.10084387
O    1.69943835  -3.18230007  -2.06022240
H    2.29144192  -3.92295927  -1.92912102
H    0.84265366  -3.50819131  -1.78463800
O   -0.74317700  -1.47468872   0.39690831
H   -0.90099084  -2.19959180  -0.20794057
H   -1.11897961  -1.76843268   1.22679910
O    1.11377510   0.54963302  -4.02817612
H    1.07910208  -0.36549692  -4.30668435
H    0.91802634   1.04929456  -4.82080000
O    0.91755395  -2.15779088  -4.51692867
H    1.36466418  -2.55696605  -5.26324192
H    1.31214540  -2.57357553  -3.75034368
O   -2.64720567   0.55852447   3.07847374
H   -2.23336805   1.23904814   3.60937656
H   -3.58576749   0.67945263   3.22238322
O    1.40750354   1.99672776  -0.22549660
H    2.09484324   2.03058912  -0.89081562
H    1.54758522   2.78144768   0.30443134
Ca   0.31713455   0.26638185   0.08730662
