61
Energy:  -2135.96337178
O   -4.27910859   0.08483538  -0.36109700
H   -4.19610747  -0.46623918   0.41714428
H   -5.17394392   0.42241058  -0.32179597
O    4.10473497   1.71117766   4.64572926
H    4.25325464   1.04762510   5.31942930
H    4.63766537   2.45686275   4.92171981
O    2.62724254   1.55520044   2.36549248
H    3.13527388   1.60554840   3.17518445
H    3.23860266   1.19999056   1.72028198
O   -1.93959673   0.61620292   3.45534005
H   -1.98324401   1.53500965   3.19053642
H   -2.01537704   0.63752189   4.40929743
O    3.91227297   0.30877023   0.19269748
H    4.82253193   0.02939916   0.29073968
H    3.88230504   0.73232975  -0.66516679
O    0.28071028   0.27501630   1.87559720
H    1.08612490   0.63870411   2.24338832
H   -0.35336951   0.32416089   2.59097086
O   -0.53688913  -0.20685233  -2.12484321
H   -1.39580723  -0.31112966  -2.53425471
H    0.08677020  -0.33401188  -2.83976372
O   -2.48503673  -3.23955530  -3.06734279
H   -3.00391043  -3.72150465  -3.71133561
H   -2.84886102  -2.35428520  -3.08001487
O   -0.64956739  -3.88975300  -1.21027355
H   -1.29900881  -3.74866808  -1.89915144
H   -0.77109199  -4.80260754  -0.94919846
O    1.00982065   3.60357459   1.47872078
H    1.36714460   4.49085947   1.51445572
H    1.65677315   3.06575195   1.93526336
O    1.60904885  -1.05763682  -0.34644388
H    2.47970033  -0.74295539  -0.10318794
H    1.77576020  -1.81124996  -0.91257673
O   -1.82478572   1.17393944   0.12469840
H   -1.89353252   1.91914022   0.72150785
H   -2.73168590   0.94359948  -0.07706235
O   -1.65532714   3.05834421   2.10359101
H   -2.16750396   3.85073629   2.26490294
H   -0.75593097   3.37020391   2.00328194
O   -3.16718266  -0.55449775  -2.84433216
H   -3.66043514  -0.14283937  -3.55388922
H   -3.69351835  -0.39338781  -2.06123180
O    1.77036457  -3.02786507  -2.22270380
H    0.95142571  -3.46299048  -1.98556065
H    2.38569779  -3.74393521  -2.38031229
O   -1.20391932  -1.66411382   0.27745985
H   -1.10446912  -2.52616720  -0.12652714
H   -1.96324521  -1.75501484   0.85312732
O    3.04387852   1.33835214  -2.27329579
H    2.70138415   0.66817325  -2.86472601
H    3.52323845   1.93939410  -2.84355404
O    1.67177483  -0.66082243  -3.69304753
H    1.73947974  -0.73927873  -4.64462123
H    1.80239875  -1.55193527  -3.36887606
O   -3.37173779  -1.25614025   1.92124175
H   -3.01059937  -0.63627046   2.55493911
H   -3.88404020  -1.86829206   2.44949192
O    0.94853848   1.74420332  -0.54170584
H    1.66899235   1.81502575  -1.16793443
H    1.02898929   2.52509455   0.00598787
Ca  -0.12349102   0.03461566  -0.12731910
