17
Energy:   -403.06078353
O   -2.63820939  -0.31457375   0.00180566
H   -2.21052801   0.26555339   0.63170485
H   -2.05075704  -0.32311204  -0.75387859
O    1.44129488  -2.14862388   1.64344606
H    1.52009702  -1.20062564   1.74984813
H    0.81297707  -2.25860824   0.92975704
O   -0.46781636  -2.09314661  -0.39699599
H   -0.03518322  -1.25681722  -0.56908187
H   -1.24565829  -1.86106138   0.11028129
O    1.21953556   2.47439780  -2.30158771
H    0.92230657   1.57839943  -2.14324094
H    1.22334998   2.88252600  -1.43576517
S    0.39518666   1.21657514   0.70137335
O   -0.94849870   1.27148056   1.34293009
O    0.30632654   0.44887054  -0.57253148
O    0.86584425   2.60100856   0.41514689
O    1.35707456   0.54494093   1.61994788
