17
Energy:   -397.40831257
O   -1.00959396  -0.05755868  -2.43721614
H   -0.94189998   0.84737187  -2.13266717
H   -0.23378746  -0.48967482  -2.07996024
O    1.26724292  -0.58787622   2.74219278
H    1.64957134   0.08778021   2.18224171
H    0.66461781  -1.06182352   2.16908827
O   -0.41851588  -1.64530817   0.79509661
H   -1.05988214  -0.93498910   0.77698610
H    0.27962513  -1.35327999   0.20896478
O   -2.09629756   0.45377144   0.08360294
H   -1.35831967   1.06337485   0.08156283
H   -2.00795063  -0.03275124  -0.73598376
S    1.46590591   1.06350390  -0.51894613
O    0.16178639   1.78381237  -0.54192381
O    1.24977025  -0.36661341  -0.87692637
O    2.39500550   1.68686615  -1.50296517
O    2.05706151   1.14995048   0.84603081
