17
Energy:   -404.65628581
O   -2.25622145   1.73735971   0.82078450
H   -1.41922291   1.69795929   0.35806114
H   -2.31279010   0.90271476   1.28597226
O   -1.95353811  -0.71967816   2.22838082
H   -1.55766553  -0.97132098   1.39399923
H   -1.22922678  -0.35605444   2.73767713
O    0.83124187  -2.78704450  -1.64476765
H    1.55610313  -2.16345417  -1.60068699
H    0.20166906  -2.46935915  -0.99750731
O    2.02333366   1.97055661  -2.10298622
H    1.25057047   2.06843709  -1.54666947
H    2.41301535   1.14045340  -1.82856195
S    0.72029097  -0.03619420   0.28826951
O    1.92893018  -0.39291108  -0.50674265
O   -0.32947709  -1.07466991   0.08913334
O    1.07942787   0.03643274   1.73251535
O    0.20228293   1.28637147  -0.16182798
