17
Energy:   -402.89922105
O    0.67050491  -2.37455229  -0.35554926
H    0.63193590  -1.64264090  -0.97121962
H    0.94450947  -1.97823403   0.47154516
O   -0.90900789   2.51190563  -0.52184573
H    0.01408807   2.38788257  -0.74262610
H   -1.03059674   2.01687815   0.28833683
O   -1.79028740  -1.15774922   0.12344769
H   -1.48402454  -0.44765192   0.68753699
H   -1.03382458  -1.73762593   0.03547696
O    0.32805385  -0.06153378  -1.83611866
H   -0.55404863   0.09062230  -1.49703814
H    0.90635520   0.34960720  -1.19365272
S    0.95543725   0.59421244   1.56253169
O    1.53461143   1.39616611   2.67677026
O   -0.52435256   0.76724801   1.54301719
O    1.52690297   1.05849518   0.26716746
O    1.28458716  -0.84505956   1.76317184
