17
Energy:   -403.79842470
O   -1.82414859   1.44299662   0.16905046
H   -0.93736141   1.35633943  -0.18070785
H   -2.17792404   0.55379490   0.14917374
O   -2.23972236  -1.92646925  -0.09744493
H   -1.68864653  -1.84522069  -0.87587023
H   -1.64041403  -1.78943784   0.63623331
O   -0.61870747   0.44426795   2.54282546
H   -1.03828303   1.01330624   1.89754751
H   -0.14166857  -0.20033964   2.02019098
O    3.41294936   1.37220912  -1.42084877
H    2.50457394   1.62924140  -1.26267058
H    3.41155831   0.41910967  -1.33235379
S    0.82820672  -0.72140887  -0.65354637
O    0.46398745  -1.20762776   0.70698128
O    2.23879628  -1.09590737  -0.95369292
O   -0.07594388  -1.34296703  -1.66165211
O    0.68598702   0.76086670  -0.70582175
