17
Energy:   -403.54966291
O   -0.68827626  -1.58723787  -1.71295865
H   -0.87884311  -1.34003779  -0.80807841
H    0.23354513  -1.35999371  -1.83476695
O    3.00377762   0.37124145  -1.02708708
H    2.79539753  -0.17261409  -0.26746168
H    2.29939610   1.01857719  -1.05925780
O   -2.18834572  -0.22595640   3.18389719
H   -1.40745592   0.31869548   3.28287851
H   -2.09514599  -0.62406010   2.31841519
O   -0.89608030   1.13924397  -2.25484174
H   -0.41108738   1.37407150  -1.46372244
H   -1.06259852   0.20096723  -2.16461817
S    0.38704279   0.23742416   1.08210510
O    0.20655203   0.88206406   2.41325591
O    0.51909542   1.28901803   0.03481697
O    1.61727708  -0.60299507   1.09996961
O   -0.79475336  -0.61839041   0.78037790
