17
Energy:   -407.46003007
O   -0.68277219   0.42553589   1.89055522
H   -1.12069668   0.55055541   1.04863830
H   -0.42959540  -0.49756578   1.89463842
O    1.79065555   0.25432149   0.57516675
H    1.46831519   0.04819127  -0.30223787
H    1.02241501   0.58317594   1.04195691
O    0.59754478  -2.03522172   1.55339819
H    1.21697337  -1.37847557   1.23524012
H   -0.02236325  -2.14929697   0.83302833
O   -0.06405489   2.51992702  -1.69416858
H   -0.82763453   2.13706752  -1.26220031
H    0.47695530   1.76819188  -1.93590006
S   -0.97506102  -0.64574835  -1.38693181
O    0.43786128  -0.28475805  -1.69260578
O   -1.00306599  -1.88098627  -0.55416354
O   -1.62278930   0.47029084  -0.64194548
O   -1.71225009  -0.88753991  -2.65901245
