17
Energy:   -402.86093310
O    2.19298526  -0.18409909   1.65237065
H    1.55582942   0.52047162   1.77003288
H    1.67196551  -0.93286979   1.36234873
O   -2.84503932  -0.69208845  -2.33392742
H   -2.07357217  -0.14659292  -2.18061432
H   -2.84740254  -1.31429350  -1.60654365
O    2.15765608   0.40660159  -1.06525548
H    1.22618470   0.20580334  -1.15621145
H    2.37668089   0.13134732  -0.17503356
O   -0.08777732   2.20972331   1.01570526
H   -0.57762395   1.48392337   1.40235313
H    0.15889174   1.89621760   0.14559010
S   -0.83089314  -1.02296395   0.35383808
O   -0.50910978  -0.11974453  -0.78666627
O   -1.14597662  -0.20694768   1.56004695
O   -2.00839996  -1.86585190   0.00295688
O    0.33991381  -1.89931170   0.63901473
