17
Energy:   -401.62104318
O   -2.93834797   2.03910621  -1.25458334
H   -2.15540497   2.56766343  -1.10011857
H   -2.66446309   1.14243346  -1.06171834
O    1.85960364  -0.94952004   1.89863514
H    1.43506229  -0.09308534   1.84847447
H    2.09334354  -1.15489451   0.99341758
O   -0.76826885  -1.76417292   1.31457695
H    0.08655018  -1.59239768   1.70955736
H   -0.90520055  -1.03350870   0.71157500
O    1.31055938  -1.62353868  -1.54789904
H    1.59380054  -0.71059562  -1.49748796
H    0.39041580  -1.60420969  -1.28485146
S    0.21551500   1.36075200  -0.21519344
O   -0.35469017   2.68142189  -0.60351945
O    1.39966632   1.06080126  -1.06837290
O    0.63114836   1.40041974   1.21511262
O   -0.81406451   0.30036509  -0.40399400
