17
Energy:   -401.17804698
O   -1.19921234   2.24073306  -1.45949589
H   -1.83649058   2.22722836  -0.74540492
H   -0.62860209   1.49201786  -1.28611383
O    0.89461483  -3.44696506  -0.63118260
H    1.58648167  -2.79000072  -0.55404647
H    0.11159766  -3.01157636  -0.29420685
O    2.61614361  -1.25505360  -0.29393535
H    2.27203564  -1.21150902   0.59821117
H    1.99096305  -0.75332224  -0.81704791
O   -1.76254998   3.04237529   1.16516354
H   -1.04233949   3.20680159   0.55648243
H   -1.70952246   2.10510903   1.35211776
S   -0.35936323  -0.48801159   0.69380720
O    0.17029020   0.11381263  -0.56212865
O    0.76074398  -0.70226156   1.65274243
O   -1.36327614   0.43106493   1.30007219
O   -1.00521098  -1.79466237   0.38454282
