17
Energy:   -398.49358465
O   -2.71409996  -0.21039527   0.25614385
H   -1.92380545   0.32943287   0.27201860
H   -2.67318015  -0.67119307  -0.58184351
O   -0.95511536  -2.39047398   0.63126151
H   -0.09596347  -1.96867041   0.64436179
H   -1.57817104  -1.66858696   0.71440355
O   -1.30764198  -1.22711933  -1.89456289
H   -0.94061542  -0.39915376  -1.58473008
H   -1.02757108  -1.87184458  -1.24485412
O    3.39345560   2.93438934   0.71445840
H    2.71238169   2.64833329   1.32318010
H    3.25961532   2.39607903  -0.06563175
S    1.06379339   0.58367018   0.22010363
O   -0.29044952   0.81427935  -0.35691071
O    1.22565179  -0.86139223   0.54521358
O    2.10104740   0.98927956  -0.76968684
O    1.21892391   1.39251405   1.46179850
