17
Energy:   -401.57136236
O    0.84790077  -3.65513871   0.16260548
H    0.19862598  -3.01134120   0.44579949
H    1.43317371  -3.16696046  -0.41650542
O   -0.82725478   2.47024949  -1.03425349
H   -0.46672929   1.72952121  -1.52166996
H   -0.26143119   2.55048518  -0.26637476
O   -2.40552080   0.44829868   0.15711590
H   -1.65401090  -0.14453249   0.16110596
H   -2.07874302   1.24724773  -0.25656096
O    0.56039298   1.28534420   2.10703294
H   -0.10995295   0.62409830   1.93492240
H    1.20910475   1.15514108   1.41533066
S    1.02665426  -0.41331856  -0.82320947
O   -0.04228526  -0.90678262   0.09000547
O    1.85653558  -1.56222744  -1.28299788
O    0.40448793   0.25304465  -2.00175483
O    1.88787880   0.56269118  -0.09809066
