17
Energy:   -403.69177130
O   -2.41020897   1.06638259   0.01191305
H   -1.54393427   1.24124513   0.37963995
H   -2.29730887   0.26357212  -0.49698848
O   -0.85847965  -1.15195958   2.64391162
H   -0.01246781  -1.40006047   2.27116269
H   -0.98935446  -0.24699853   2.36080543
O   -1.54505859  -1.51523551  -0.81643007
H   -0.73990620  -1.06775943  -1.07667349
H   -1.49905342  -1.55582798   0.13880164
O    2.73670430   1.23855788  -2.49464421
H    2.99693997   1.42531500  -1.59262923
H    1.95761208   0.68882665  -2.41072315
S    1.20442558   0.27337494   0.32479093
O    0.78898879  -0.11700780  -1.05184031
O    1.44798685  -0.95220952   1.13640700
O    2.45514937   1.08026519   0.25610198
O    0.12557733   1.08245190   0.95849507
