17
Energy:   -398.07229572
O   -0.36527627  -0.60001710   4.03756570
H    0.28034358  -0.29925819   3.39807298
H   -1.08481334  -0.94428648   3.50843732
O    0.74112152   2.09527221  -0.12686964
H    1.04827020   1.47957033   0.53856460
H   -0.12498991   1.77038979  -0.37290672
O   -0.55761308  -1.04045444  -2.60195729
H   -0.25500475  -1.66413970  -1.94189915
H   -1.03391404  -0.37613793  -2.10390827
O    1.42165653   0.90361268  -2.53945095
H    1.28294434   1.29548572  -1.67722922
H    0.81921851   0.16020730  -2.56492088
S   -0.64274096  -0.79457649   0.70355147
O    0.50899363  -0.17547055   1.41791502
O   -0.16990685  -1.97708287  -0.06988667
O   -1.66769517  -1.22695253   1.69482330
O   -1.24235545   0.20120000  -0.22864575
