17
Energy:   -399.13446004
O    0.08498672  -1.51157876  -1.27046340
H   -0.51925875  -0.83244091  -1.57028175
H    0.79425870  -1.03054795  -0.84411325
O   -1.40933790   0.74608070  -1.93998490
H   -1.52248963   0.98090649  -1.01896081
H   -0.54525516   1.08748112  -2.17028606
O    0.60305617  -1.87022958   1.48289264
H    1.13421214  -1.11272633   1.23734428
H    0.12734904  -2.09877839   0.68433142
O   -1.29071177   0.03338920   2.17094671
H   -0.97007007   0.74805534   1.62078941
H   -0.65332763  -0.66980846   2.04650254
S    1.18785701   1.56821517  -0.15134212
O    1.69360275   0.20664531   0.18099621
O   -0.16428963   1.75528383   0.44598927
O    2.11990754   2.59223782   0.39889368
O    1.10220737   1.71869372  -1.63124764
