17
Energy:   -403.72296182
O    0.21511670  -1.04839901  -2.45005303
H   -0.24043996  -0.32710735  -2.01595819
H    0.72135905  -1.46637500  -1.75345660
O    1.75785630  -1.47918244  -0.13470532
H    2.06094277  -0.59935357  -0.35891860
H    0.93814305  -1.33724335   0.33874513
O   -2.86355753  -0.92086971   2.54059986
H   -2.98989670  -0.04190731   2.18325498
H   -2.03622298  -1.21746017   2.16141192
O    2.10974185   1.88329163  -0.94754364
H    1.73846168   2.00835391  -0.07419245
H    1.36933479   1.60203195  -1.48505850
S   -0.77755535   0.85703956   0.57244461
O   -0.71334224   0.96741206  -0.91207369
O    0.26730015   1.72777738   1.18087919
O   -2.12242832   1.29073495   1.04501737
O   -0.54175099  -0.55776616   0.97595559
