17
Energy:   -403.62368569
O   -0.48095672   2.90417709  -0.13195842
H   -0.67504659   2.38184095  -0.91024239
H    0.32138375   2.51971937   0.22113346
O   -2.03329906   0.91261643   1.11212946
H   -1.59967654   1.68576855   0.75096583
H   -1.56368525   0.17247665   0.72756759
O    0.16345396  -3.38390494  -1.26721432
H    0.74082213  -2.78326514  -1.73849945
H   -0.31207087  -2.82617808  -0.65154498
O    1.39982159  -0.47835556   2.17926860
H    0.63394912  -0.93757195   1.83460715
H    1.67968336   0.09230759   1.46355022
S    0.50645816  -0.05297217  -1.04296760
O   -0.35234571  -0.85677605  -0.12838834
O   -0.35144169   0.83348300  -1.87861410
O    1.44562219   0.77886148  -0.23914938
O    1.28399788  -0.96745710  -1.92571859
