17
Energy:   -401.87210635
O   -0.07253900  -2.28967355   2.36136002
H    0.44283361  -1.49471342   2.22475365
H   -0.62907929  -2.35124038   1.58501971
O   -1.05874569  -1.03041246  -0.05977050
H   -0.40011514  -0.69557132   0.54876797
H   -0.67650458  -0.89308586  -0.92652593
O   -0.03966307   0.06168348  -2.39419643
H    0.80347832   0.09605918  -1.94235269
H   -0.55067253   0.77022407  -2.00295302
O   -1.56357175   1.64560090  -0.68251382
H   -1.60616520   0.76005912  -0.32163516
H   -0.74095167   2.00209281  -0.34719074
S    1.71117432   0.97001504   0.53704664
O    0.96387283   0.00388699   1.39041471
O    0.86419930   2.17005169   0.28675609
O    2.96298187   1.38187326   1.23235282
O    2.05364329   0.32424822  -0.76133706
