17
Energy:   -404.49539416
O   -3.25071906  -0.31441394  -0.79724705
H   -2.57696279   0.26035184  -0.43402723
H   -2.85804161  -1.18712806  -0.77708965
O   -1.89070423  -2.22967510   0.73339386
H   -0.98522354  -1.98717634   0.53966487
H   -2.31457278  -1.40484017   0.97049011
O    2.12591635  -0.93338633  -1.97114880
H    1.97740722  -0.00413158  -1.79604170
H    1.63558255  -1.38801840  -1.28622962
O    2.61292791   2.78275302   1.15498758
H    2.12152383   2.22287296   1.75606012
H    2.31700536   2.51780395   0.28408937
S    0.29456763   0.46121011   0.47458626
O   -1.14693975   0.82414690   0.37244251
O    0.45450452  -1.00400783   0.25628241
O    1.06839145   1.20474966  -0.55907019
O    0.80231432   0.81995171   1.82869032
