17
Energy:   -403.99039689
O   -2.37173025  -0.18547263  -1.96764718
H   -2.03351838  -0.07415103  -1.07913602
H   -1.81447870   0.37422133  -2.50842922
O   -1.06971042   1.52330892   2.71347507
H   -0.15673901   1.66973569   2.46593872
H   -1.44112169   1.03178964   1.98088084
O   -0.49343903  -2.30845859  -1.81603873
H    0.18567674  -1.86731641  -1.30571805
H   -1.22418486  -1.69031823  -1.82807534
O    3.26852124  -0.30054048   1.44980021
H    2.68178946   0.44983308   1.54423102
H    2.90009257  -0.80334109   0.72338179
S    0.43602515   0.64857145  -0.13083635
O    1.10043482   1.35690159   0.99917613
O    1.16867642  -0.61523145  -0.42430589
O   -0.97173928   0.33177901   0.24056892
O    0.44672864   1.52083663  -1.33878457
