17
Energy:   -406.10043117
O    1.15096131   2.59156082   0.42879902
H    1.08101040   1.71220175   0.80037182
H    0.32141313   2.72501904  -0.02975368
O    0.21904415  -3.52333827   0.25506094
H    0.78471813  -2.92343996  -0.23111476
H   -0.42543275  -2.95583957   0.67793988
O   -1.36064454   2.59709543  -0.83436607
H   -1.11598327   1.78632950  -1.28049533
H   -1.67619032   2.31313031   0.02355381
O    1.58955672  -1.42042824  -0.97234730
H    0.73785205  -1.12332507  -1.29259829
H    1.67384430  -1.01949583  -0.10725733
S   -0.86930395  -0.20150688   0.71636756
O   -0.89196620  -0.18932479  -0.77341029
O   -1.76887539   0.86682983   1.23552833
O   -1.33693184  -1.52754016   1.20937863
O    0.52055761   0.04400760   1.19397356
