17
Energy:   -412.79866133
O   -1.03812979  -1.47183341  -2.50142503
H   -1.65831478  -0.79473219  -2.23098768
H   -0.27504957  -1.33655301  -1.93960688
O   -0.22249582   0.67984369   3.37699225
H    0.56495395   0.92345042   2.89036049
H   -0.81807622   0.33405966   2.71219962
O    3.42900055  -0.70904405   0.35985003
H    3.00539296  -0.00686007   0.85353628
H    2.74712655  -1.03428393  -0.22794136
O   -2.57567125   0.60092070  -1.40544065
H   -2.41480241   0.18624741  -0.55785636
H   -1.81182648   1.15990221  -1.54796320
S    0.29109503   0.44227087   0.07019071
O    0.85454792  -0.70507345  -0.69546057
O   -0.94178884   0.00553937   0.78388738
O    1.29610249   0.91938669   1.06136200
O   -0.04448143   1.54923088  -0.86902599
