17
Energy:   -403.70323391
O   -2.57751636  -0.39496445   0.54332143
H   -1.97485907   0.31031532   0.30748999
H   -2.01667156  -1.16256486   0.65501106
O    0.25083428   1.00885514   2.86756501
H    0.99845693   0.96467523   2.27146070
H   -0.49568633   1.20653938   2.30200355
O   -0.33524381  -2.03760808   1.00965096
H    0.00691906  -1.67673106   0.19177309
H   -0.14911479  -1.36526691   1.66504793
O    1.28665346  -0.06163103  -3.68876078
H    1.04027030  -0.60695534  -2.94166735
H    1.36994769   0.81994587  -3.32528301
S    0.75508977   0.85875157  -0.50923147
O    1.15391851   1.76835131  -1.61993572
O   -0.56298866   1.28915474   0.03622463
O    0.64848666  -0.53571896  -1.02322345
O    1.78094259   0.91321915   0.57000868
