17
Energy:   -404.98092357
O    0.44791349  -1.85560444  -1.79907395
H    0.62166605  -1.76349959  -0.86229298
H   -0.04889316  -1.07049700  -2.02933752
O   -2.38673801  -1.67347945   0.22985981
H   -2.22105590  -0.85158140   0.69166591
H   -1.52281858  -2.07510484   0.13727412
O   -0.96198698   0.51051658  -1.95909345
H   -0.26734083   0.84877662  -1.39404591
H   -1.63703410   0.20523085  -1.35300446
O    2.63156430   2.55093754   1.51222908
H    2.20232935   2.32829606   0.68614193
H    2.23078117   1.96682285   2.15597962
S    0.23883145   0.25595514   1.14709812
O    0.94952838   0.61456084   2.40662653
O    0.73269457   1.11685924   0.03577308
O    0.49842727  -1.17440239   0.82031476
O   -1.22532444   0.46680285   1.32567810
