17
Energy:   -403.52131115
O   -2.08457273  -2.15845342   1.20537281
H   -1.75664081  -1.35531637   1.60992614
H   -1.37756867  -2.44091750   0.62520804
O   -1.39820696   1.02056418  -1.76784225
H   -1.90965339   0.35263145  -1.31120207
H   -0.48831545   0.81356709  -1.55457834
O    3.71425533   0.56047767  -0.79477780
H    2.83802646   0.70299079  -1.15275104
H    3.57617255  -0.01963577  -0.04602324
O   -1.59866207   1.96173471   0.84303655
H   -1.48569363   1.90031602  -0.10548742
H   -1.05277745   1.25899424   1.19573707
S    0.85056724  -0.75641747   0.34611293
O    0.94492431   0.17407478  -0.81379263
O    0.31160380  -2.06788202  -0.11179441
O    2.20466349  -0.95439515   0.93545850
O   -0.05892264  -0.17746749   1.37458029
