17
Energy:   -403.05011888
O    0.10799159   2.05511065   2.74673333
H    0.83905800   2.03822498   2.12908568
H   -0.43790112   1.31094473   2.49286314
O   -1.65116216  -2.45544268   0.57872704
H   -0.81716466  -2.92363089   0.54025863
H   -1.41263030  -1.55941554   0.81636073
O   -1.34274529  -1.81816810  -2.07748234
H   -0.68363235  -1.13657429  -1.94621223
H   -1.59218644  -2.08441521  -1.19253972
O    1.48049064   2.53866221  -1.81423245
H    1.74763757   2.41999360  -0.90275994
H    1.02162261   1.72875397  -2.03721366
S    0.79142913  -0.06517013   0.22010255
O    0.45284557   0.01649074  -1.22861850
O    1.56701882  -1.31068192   0.47944982
O    1.60937866   1.11878969   0.60649320
O   -0.46352653  -0.08527902   1.02308570
