17
Energy:   -404.51566516
O   -1.98770461   1.19470224   3.31600270
H   -1.46347405   1.88477711   2.90954133
H   -1.86889898   0.43544371   2.74535084
O    0.23618226  -2.15507033  -0.39054463
H   -0.31480993  -1.63420490   0.19369731
H    1.04190897  -1.64575598  -0.47792431
O   -0.81082281  -0.65732859  -2.58739943
H   -0.70047371   0.11597858  -2.03418072
H   -0.59197149  -1.39392706  -2.01664672
O    2.40954448  -0.02735120  -1.53331896
H    2.33419635   0.20710112  -0.60833971
H    1.60307376   0.30123367  -1.93064604
S    0.04437336   0.96393114   0.69194377
O   -0.21594051   1.19806633  -0.75633708
O   -0.82462211  -0.14363006   1.18005756
O    1.47492269   0.59529151   0.88619476
O   -0.25686663   2.20599679   1.45785983
