17
Energy:   -403.19911630
O   -1.78927231  -1.38735122  -0.58202057
H   -1.03707853  -0.85684623  -0.84470062
H   -1.64620644  -1.56269307   0.34804354
O   -1.49454940   1.81592960   1.00212041
H   -1.46656496   1.22513607   0.24951711
H   -0.57716015   1.93500583   1.24798554
O   -1.11385071  -1.03514629   2.16880711
H   -0.21019653  -1.16194888   1.87973605
H   -1.31629261  -0.12968828   1.93344583
O    1.91689746  -0.00001186  -3.11809038
H    1.16554204   0.04630201  -2.52686123
H    2.67740983   0.12134647  -2.54964958
S    1.40910764   0.29806492   0.24379350
O    1.33358793  -0.92422885   1.09255421
O    2.76241208   0.39192001  -0.37253295
O    0.37866050   0.22172371  -0.82972908
O    1.16177003   1.50284479   1.08488183
