17
Energy:   -404.04661830
O   -1.44764822   2.54030438  -0.83365468
H   -1.09351694   2.01916903  -0.11307101
H   -1.91467126   1.90820378  -1.38007042
O   -0.54803002  -0.72990997   3.27120197
H   -0.60570543   0.03208908   2.69477951
H   -0.48523710  -1.47689359   2.67596726
O    2.20909709  -2.60760791  -0.14287967
H    2.04147177  -1.81315216  -0.64980536
H    1.41491812  -2.73287905   0.37656114
O    0.97049791   1.89408717  -2.10325383
H    0.94281103   0.98710435  -1.79854506
H    0.18514736   2.29607609  -1.73195708
S   -0.52241070  -0.65775546  -0.08342697
O   -0.33809111  -1.87895989   0.75011129
O    0.64173101  -0.50184393  -1.00025065
O   -1.77186294  -0.78732505  -0.88478883
O   -0.62141977   0.53710704   0.80122032
