17
Energy:   -397.71052829
O   -1.18229898  -1.18330544   0.93073776
H   -1.59283688  -0.77372603   0.16920300
H   -0.58155251  -0.51796026   1.26637346
O   -1.87574834   0.34245602  -1.30182036
H   -1.69869233   1.04721149  -0.67876118
H   -1.00952014   0.04117499  -1.57588294
O    0.71965462  -0.58108951  -1.71437928
H    0.86499999  -1.05902600  -0.89787252
H    0.92915781   0.32815276  -1.50079380
O    1.57151850  -1.77241977   0.99946149
H    0.66506692  -2.07973070   1.01118164
H    1.50917239  -0.83418981   1.17854065
S    0.47372882   1.98231609   0.61071361
O    1.04753693   3.14863885   1.33909227
O    0.71875345   0.73840906   1.39350237
O   -0.99294745   2.17844576   0.43608866
O    1.12157235   1.86377069  -0.72582885
