17
Energy:   -404.17424610
O   -1.21039696   2.94682402   1.56319941
H   -0.26897329   2.77487625   1.54351978
H   -1.58624099   2.29241127   0.97437254
O    2.44460082  -0.24742011   2.26967252
H    2.21700447   0.65992776   2.06681398
H    1.99293163  -0.76322611   1.60171223
O    0.18327018  -2.44440556  -1.82787378
H    0.40781092  -2.00544109  -1.00743274
H    0.36836216  -1.79479088  -2.50608730
O   -2.33130967  -1.29283151  -1.38169481
H   -2.02531099  -0.50805024  -0.92703558
H   -1.53702936  -1.80241424  -1.54193241
S    0.41607659   0.62069113  -0.26341241
O   -1.06571986   0.76714745  -0.20928457
O    0.79418119  -0.75975592   0.15071664
O    0.88924066   0.86911948  -1.65427514
O    1.04660438   1.60625350   0.65919343
