17
Energy:   -401.23134898
O   -1.67639221  -1.48069195  -1.83864689
H   -1.48126547  -1.04189479  -1.01062850
H   -0.84688904  -1.47187796  -2.31622270
O    0.71184565   1.92620378   2.92601349
H    0.86622774   2.00623490   1.98474146
H    0.52671618   0.99678170   3.06067424
O    0.16642200  -0.82535460   2.88474547
H   -0.50114329  -0.62416774   2.22891601
H    0.97659794  -0.91479545   2.38290173
O   -0.51458909   0.26087018  -3.71311858
H   -1.31230239   0.05855787  -3.22428827
H    0.17756675   0.26467994  -3.05195474
S    0.81758933   0.20539305  -0.10254962
O    1.03696508   0.01107997  -1.56344548
O    1.77215517  -0.64686020   0.66071210
O    1.04047724   1.63652797   0.24712712
O   -0.57924018  -0.17917554   0.24540778
