17
Energy:   -399.32906350
O    2.36687678  -0.45138173  -1.07220015
H    1.84018370   0.28693663  -1.37832469
H    2.00967860  -0.65936067  -0.20884271
O    0.60273747   1.62916698  -1.70146113
H   -0.21321979   1.16697140  -1.89334873
H    0.63086624   1.67985155  -0.74601794
O   -0.60684161  -3.01689978   0.81943649
H    0.26316639  -2.63272009   0.92771348
H   -1.20908431  -2.28009106   0.92262800
O   -2.15325932   1.31092497  -0.75793466
H   -2.11119930   0.56767930  -0.15622985
H   -1.46044516   1.90039687  -0.46000301
S   -0.01666453   0.17753772   1.62108652
O    0.22250423   1.46409654   0.90858059
O    1.06177676  -0.79028970   1.27413631
O   -0.01522421   0.41655310   3.09179030
O   -1.33571493  -0.38020907   1.20983891
