17
Energy:   -399.09711468
O   -1.37791513   2.15030593  -0.23104281
H   -1.08362562   1.59598950  -0.95378677
H   -0.61398700   2.22454882   0.34091318
O   -1.56724335  -0.45135906   0.74960338
H   -0.68073751  -0.58373834   1.08548278
H   -1.63219375   0.49328996   0.60941946
O   -0.56438399  -0.02647724  -1.80652142
H   -0.94529941  -0.38317495  -1.00408635
H    0.32667955   0.22116895  -1.55972399
O    0.71770902  -2.93906195   0.07089993
H    0.88841338  -2.18886493   0.64037012
H    0.61266938  -2.55920876  -0.80140167
S    1.67948065   0.70798983   0.79512761
O    0.84348560   1.87513416   1.19385857
O    1.06633549  -0.54451888   1.31988942
O    1.75779425   0.63778745  -0.69115589
O    3.05030727   0.86355657   1.35791832
