17
Energy:   -406.87224175
O   -1.92722442   0.43188863   1.72788238
H   -1.12608113   0.00602445   2.03290858
H   -1.78166077   0.57534976   0.79275566
O    0.48623327  -0.96198841   1.93043591
H    0.15824579  -1.63766896   1.33704576
H    0.83317815  -0.28262975   1.35222063
O   -1.42234481  -2.45664065  -0.02545429
H   -0.65456493  -2.30013788  -0.57522950
H   -1.87055640  -1.61148784   0.00702566
O    2.38128243   2.75071963  -1.54276260
H    1.83503149   2.30325753  -2.18899742
H    2.18998808   2.30546891  -0.71729903
S    0.26208324   0.22711991  -1.18934330
O    0.58416012   0.93491471  -2.46032441
O    0.52897176  -1.22986033  -1.35083357
O    1.11034510   0.76863931  -0.09056735
O   -1.17514401   0.43478595  -0.85564784
