72
Energy:   -318.75831128
C    3.70194171   1.34420530  -0.59590610
H    4.52871688   1.42363238   0.07865624
H    4.02295496   1.59685415  -1.58485410
H    3.32956013   0.34113291  -0.58714068
C    2.58593354   2.30994032  -0.15604062
N    1.75501473   3.02897393   0.17145922
C    2.04191992   3.13519555   3.56305358
H    1.88129596   3.92552221   2.85985809
H    2.90518038   2.57207738   3.27568901
H    2.19491405   3.55026941   4.53732540
C    0.81044921   2.21078745   3.58649652
N   -0.10643670   1.52252360   3.60395086
C    0.88697936  -2.07918257  -3.74279097
H    0.36925785  -2.24763899  -2.82165740
H    1.41008117  -2.96867203  -4.02576110
H    0.18256104  -1.82162798  -4.50591584
C    1.89307334  -0.92721539  -3.56293961
N    2.64215605  -0.06952347  -3.42903209
C   -4.38735648   2.13619865  -1.67185265
H   -5.43690923   1.98749660  -1.81754723
H   -3.85229445   1.28510577  -2.03825217
H   -4.07384677   3.01043937  -2.20318486
C   -4.09809356   2.31690320  -0.17009607
N   -3.88272416   2.45144594   0.94802997
C   -2.40754151  -2.60934980  -1.62303435
H   -1.55503583  -2.63655240  -0.97697378
H   -2.12318649  -2.20482860  -2.57193050
H   -2.78534033  -3.60142950  -1.75699338
C   -3.50002517  -1.72455180  -0.99437549
N   -4.31342891  -1.06577947  -0.52631040
C    0.15006146  -4.67664657   0.86536210
H   -0.88500708  -4.89671895   1.02379649
H    0.36734559  -3.69701824   1.23686584
H    0.75074652  -5.39551606   1.38237584
C    0.46252278  -4.73520477  -0.64146863
N    0.69516443  -4.77880402  -1.76337261
C   -0.87727873   0.75258613   0.17646099
H   -0.54054065   1.65848482  -0.28272874
H   -0.97248761   0.90161184   1.23174565
H   -1.82717100   0.47735080  -0.23201087
C    0.14223641  -0.36958528  -0.09357644
N    0.90131177  -1.20509290  -0.29463158
C    1.45383130  -1.64419492   3.26604246
H    0.73092807  -1.79863694   2.49244130
H    0.97360706  -1.22152947   4.12373570
H    1.89796556  -2.58082145   3.53132455
C    2.54621610  -0.68219239   2.76320393
N    3.35954624   0.03406222   2.38881778
C   -3.41124298  -0.23928055   2.95830057
H   -4.20929091  -0.03603528   2.27513804
H   -2.80863150   0.63731789   3.07377204
H   -3.81721746  -0.52058596   3.90748500
C   -2.54565928  -1.38858082   2.40923433
N   -1.90119287  -2.24428711   2.00042955
C    0.27865266   2.55087252  -3.43249736
H   -0.23962510   3.37547286  -3.87558045
H    1.09797412   2.26632326  -4.05910980
H    0.64837998   2.83751947  -2.47019058
C   -0.68675790   1.36104324  -3.27793755
N   -1.40554995   0.47516126  -3.16286074
C    3.81291871  -2.88300606  -1.02767907
H    3.45043218  -1.87903638  -1.10216778
H    3.30344143  -3.49979922  -1.73824095
H    4.86347704  -2.89884239  -1.23010312
C    3.55587567  -3.41745930   0.39354878
N    3.36449544  -3.81538403   1.45171752
C   -1.12470780   4.53876175   1.26143679
H   -1.73770506   5.31389641   1.67168159
H   -0.09392370   4.77637051   1.42245020
H   -1.35572088   3.61024254   1.74037740
C   -1.39352285   4.41754166  -0.25006715
N   -1.59366788   4.32728779  -1.37545054
