72
Energy:   -317.97125956
C    0.26364356  -2.07451538   3.51126166
H    0.90095869  -2.58551956   2.82017242
H   -0.29824067  -2.79008181   4.07442229
H    0.85909530  -1.48502532   4.17672224
C   -0.70192763  -1.15759402   2.73761608
N   -1.42083927  -0.47490438   2.16160178
C    2.86719017   2.92871159  -2.80403937
H    3.43735703   3.19659972  -3.66893582
H    2.61954845   3.81158908  -2.25258673
H    1.96832874   2.43445519  -3.10843683
C    3.69668508   1.98382741  -1.91480819
N    4.31428174   1.28031818  -1.25273516
C    0.61532344   0.15617620  -0.62169570
H    1.18273137   0.83871243  -1.21926805
H    0.02333785   0.70443812   0.08105677
H   -0.02577544  -0.42280824  -1.25309758
C    1.57340175  -0.78194995   0.13567163
N    2.28673460  -1.48042752   0.69956603
C   -3.18926975   0.17290872  -0.86700235
H   -2.97567279   0.20021443  -1.91511060
H   -4.20499198  -0.12863335  -0.71773806
H   -2.53570522  -0.52581179  -0.38789680
C   -2.97545299   1.57324181  -0.26289172
N   -2.81625668   2.61585344   0.18689611
C    4.36309573  -1.98204822  -2.16034535
H    4.38363708  -1.63723294  -1.14763579
H    4.30477650  -1.14294567  -2.82171125
H    5.25433573  -2.53720224  -2.36624428
C    3.13474608  -2.88699973  -2.36967739
N    2.22018393  -3.56077727  -2.52553461
C   -3.85086933   1.61027502   3.47760697
H   -3.55735706   2.46264501   2.90122505
H   -2.97869356   1.08903005   3.81303536
H   -4.42195676   1.93127109   4.32360920
C   -4.70665124   0.67170645   2.60678762
N   -5.34381978  -0.02710051   1.95842302
C   -0.90138288   4.41908883  -2.21109084
H    0.10818572   4.68679324  -1.97869938
H   -1.50791699   4.52077439  -1.33549076
H   -1.27349247   5.06394133  -2.97959511
C   -0.94589167   2.95933528  -2.69969963
N   -0.97903048   1.87248241  -3.06349108
C   -0.38773586   3.18991453   2.34688667
H    0.13137282   3.43255824   3.25051844
H   -0.74563549   2.18297445   2.40053943
H   -1.21532480   3.85636317   2.22102223
C    0.57135473   3.33074238   1.15026110
N    1.28544127   3.43559511   0.25931897
C   -3.94606973  -3.03771472   1.26205044
H   -4.06862878  -3.47578029   0.29355779
H   -3.62843305  -2.02144332   1.15622761
H   -4.87775140  -3.06733567   1.78739885
C   -2.88590865  -3.82726826   2.05215404
N   -2.09657055  -4.41512677   2.64042209
C   -0.29950384  -1.49775539  -4.05792716
H   -0.62163832  -1.67590831  -5.06261174
H   -1.04799069  -0.93764734  -3.53740292
H   -0.14459469  -2.43308724  -3.56188625
C    1.01843952  -0.70130519  -4.07502634
N    1.99970826  -0.10831182  -4.08775746
C    0.48510536  -4.56463086   0.14170995
H    0.01812365  -5.08975371   0.94860167
H    1.33637530  -4.03048206   0.50902948
H    0.79791674  -5.26391746  -0.60531508
C   -0.51819877  -3.57116976  -0.47311999
N   -1.26520430  -2.83149281  -0.93088883
C    3.98234215   1.32576600   2.06484438
H    3.82337115   2.12508382   1.37150504
H    4.15891659   0.41742140   1.52760081
H    4.83083978   1.54849211   2.67749758
C    2.73580182   1.16212369   2.95420281
N    1.80769589   1.04028455   3.61637058
