72
Energy:   -319.54169028
C    1.75093067   3.15426885   1.26905241
H    0.70867638   2.92641671   1.35084224
H    1.87216956   4.19243880   1.04013457
H    2.23794832   2.93419131   2.19602532
C    2.37556413   2.30476256   0.14665671
N    2.84063213   1.67226651  -0.68901791
C   -0.06067698  -1.82897437   4.05033951
H   -0.88822723  -2.33729558   4.49941667
H   -0.35281448  -0.83330333   3.78919978
H    0.75362596  -1.79155689   4.74345549
C    0.37884967  -2.58424833   2.78227896
N    0.70609723  -3.14658413   1.83815024
C    1.29358378  -4.60172314  -1.74117145
H    0.89491448  -4.21193719  -0.82791909
H    2.35454049  -4.70717837  -1.65089882
H    0.85601224  -5.55723200  -1.94225119
C    0.97016033  -3.63572663  -2.89609483
N    0.72935686  -2.91649832  -3.75598779
C    1.76826556   3.51570785  -3.53047163
H    1.37857832   4.46276870  -3.22043974
H    2.03910724   3.56270509  -4.56455825
H    2.63213142   3.27686690  -2.94601473
C    0.69599135   2.42875779  -3.32955477
N   -0.10236553   1.61947406  -3.17996303
C   -2.24065836  -1.18812357  -3.57943584
H   -2.17719846  -2.25519804  -3.53226482
H   -1.26224450  -0.77851565  -3.72024341
H   -2.86756734  -0.90397616  -4.39866992
C   -2.83789850  -0.65082211  -2.26558221
N   -3.28257093  -0.25077676  -1.28735846
C    3.83008793  -1.20227465   1.38056764
H    4.06923956  -0.60980952   0.52226014
H    3.22657802  -2.03415412   1.08282375
H    4.73293856  -1.55945010   1.83021807
C    3.05506010  -0.34362977   2.39725876
N    2.47801665   0.29567037   3.15423151
C   -4.12819117   0.96092229   1.85782558
H   -4.46777012   1.91778194   2.19547323
H   -4.94640016   0.42464418   1.42442169
H   -3.36020018   1.09335094   1.12464649
C   -3.56717396   0.16499960   3.05087494
N   -3.14947115  -0.42760103   3.93915441
C    0.50048348  -0.89522931  -0.78187555
H   -0.23672493  -1.50336872  -1.26311395
H    1.28382686  -1.51755410  -0.40242319
H    0.90658130  -0.20129326  -1.48787584
C   -0.15039483  -0.12302846   0.38073500
N   -0.63500332   0.45191017   1.24635140
C   -0.55197136   2.14201738   4.28393580
H    0.15675306   1.58211355   3.71024809
H   -1.16978147   1.46984160   4.84195861
H   -0.03244228   2.79128664   4.95731389
C   -1.43055506   2.98083014   3.33731875
N   -2.08470056   3.60536436   2.63251932
C   -2.28012735   3.10759532  -0.78505018
H   -2.78997580   3.09174742  -1.72563701
H   -2.94701770   3.45465741  -0.02366706
H   -1.94620262   2.12010750  -0.54367668
C   -1.06710298   4.05214046  -0.87452838
N   -0.16395119   4.75539724  -0.94114896
C    3.13544814  -0.31832560  -3.62870011
H    3.36122119   0.65956172  -3.25767033
H    2.08394919  -0.39680159  -3.81060824
H    3.66872056  -0.48550808  -4.54115264
C    3.55636326  -1.37218968  -2.58764248
N    3.86975369  -2.15683938  -1.81252776
C   -2.84291930  -2.77477092   1.19702704
H   -3.86947297  -2.49673856   1.07961428
H   -2.26766689  -1.91201064   1.46089906
H   -2.75863554  -3.50974291   1.97008041
C   -2.31468753  -3.35885035  -0.12638613
N   -1.92139497  -3.79372403  -1.11172740
