72
Energy:   -317.77128416
C    0.28291388   0.31515566   1.27639327
H    1.25391264   0.56997989   1.64669883
H    0.00647049  -0.65348496   1.63724434
H   -0.42910416   1.03850984   1.61504962
C    0.30804714   0.30142834  -0.26334043
N    0.32675999   0.29120773  -1.40974217
C    2.67753404   3.39054747   3.25658507
H    2.95997644   4.27883379   3.78201242
H    2.85360185   3.52419395   2.20966681
H    3.25779686   2.56537878   3.61336341
C    1.18247476   3.10735376   3.49364846
N    0.06933516   2.89650317   3.67015292
C    1.95796336  -2.04706536  -3.42085564
H    2.90514468  -2.51174301  -3.24246725
H    1.40090994  -2.63097750  -4.12344883
H    1.41435004  -1.98096224  -2.50160920
C    2.17886802  -0.63301649  -3.98942131
N    2.34334158   0.41980717  -4.41274429
C    0.96070656   3.45936659  -2.70551330
H   -0.05946765   3.69624130  -2.92468249
H    1.17936882   2.47049871  -3.05080480
H    1.60307663   4.15925828  -3.19786622
C    1.18975231   3.53435389  -1.18448899
N    1.36028728   3.59018535  -0.05201726
C   -1.19196823  -4.26188497  -2.03094955
H   -0.54013103  -4.08521983  -2.86088804
H   -2.17611438  -3.91708224  -2.27067131
H   -1.22314962  -5.31016809  -1.81874845
C   -0.66881290  -3.50366346  -0.79684719
N   -0.27929999  -2.93913308   0.12199812
C    2.52611114  -2.41327819   2.18767475
H    1.48477920  -2.65424321   2.23731185
H    2.69095341  -1.45146080   2.62657498
H    3.08859645  -3.15024212   2.72189711
C    2.97804347  -2.39008956   0.71566270
N    3.31452764  -2.37282457  -0.38031717
C   -3.16200003  -0.74622977  -1.18689119
H   -3.46720868   0.08038009  -1.79390355
H   -3.85148688  -1.55475969  -1.31253496
H   -2.18336321  -1.06297552  -1.48157949
C   -3.13888752  -0.31637350   0.29171944
N   -3.12167920   0.00367403   1.39261227
C   -2.01662655   0.52994589   4.68056450
H   -1.68534057   1.21530233   5.43251950
H   -2.93505505   0.07688577   4.99060436
H   -2.17077240   1.05589295   3.76158798
C   -0.94972355  -0.56135972   4.47472464
N   -0.15536577  -1.37388636   4.32146750
C   -2.69388565  -3.25444798   2.70613814
H   -1.64334086  -3.11135847   2.56198123
H   -2.85312322  -4.05230713   3.40109373
H   -3.12693368  -2.35473614   3.09069906
C   -3.35343749  -3.60698228   1.35991716
N   -3.84450381  -3.86946009   0.35759444
C   -1.24648037   0.92102990  -4.43572197
H   -2.10755041   1.28755618  -4.95448689
H   -0.36345821   1.18466958  -4.97947292
H   -1.20684468   1.35565542  -3.45877328
C   -1.33512091  -0.61147661  -4.31256900
N   -1.40111783  -1.75249737  -4.22087601
C    3.95881780   0.96541996  -1.28102857
H    2.97381827   1.15239807  -1.65481365
H    4.30882179   0.02508762  -1.65274269
H    4.61704839   1.74432536  -1.60496989
C    3.92537667   0.92864534   0.25816905
N    3.90047822   0.90126496   1.40417164
C   -2.09567696   3.50290646   1.11278679
H   -1.09710942   3.84494692   1.28820447
H   -2.30883774   2.67769186   1.75968898
H   -2.78462986   4.29759046   1.30956160
C   -2.23449868   3.05456431  -0.35395036
N   -2.33785776   2.72075321  -1.44600283
