72
Energy:   -318.53689990
C   -0.50236562  -0.33389602   0.58052645
H   -0.26992611  -1.36884512   0.72106978
H   -1.50799063  -0.23893765   0.22753872
H   -0.40065277   0.18408450   1.51125185
C    0.46405476   0.27348429  -0.45326308
N    1.18359867   0.72570653  -1.22296638
C    2.08491817   2.89424148   3.11141225
H    1.48150529   3.12582854   3.96414932
H    1.67527399   3.36980023   2.24484741
H    3.08209685   3.24661172   3.27379752
C    2.10777119   1.36932767   2.89760013
N    2.12478630   0.23396003   2.73840729
C    1.60563445  -2.05185027  -3.36389566
H    1.02871257  -1.78922772  -2.50186856
H    1.75737009  -3.11087441  -3.38242281
H    1.08328727  -1.75086336  -4.24789757
C    2.96937671  -1.33882219  -3.30560299
N    3.98474480  -0.80794038  -3.26220146
C    0.05623583   4.07614033  -0.29374156
H   -0.09719595   4.50278720   0.67544950
H    0.19132768   4.85885841  -1.01068067
H    0.92696554   3.45451764  -0.27601869
C   -1.17057045   3.23022931  -0.68230418
N   -2.08398349   2.60041011  -0.97160672
C   -1.03638595  -3.91878746  -0.87886606
H   -1.99780843  -3.59809492  -1.22197432
H   -0.72879150  -4.78037926  -1.43379336
H   -0.32616977  -3.13110389  -1.02045235
C   -1.11754286  -4.27397299   0.61741493
N   -1.17796788  -4.53842477   1.73146414
C    4.07045394  -0.88150666   0.28376589
H    4.77571429  -0.99295373  -0.51315793
H    4.57085580  -1.00009982   1.22207966
H    3.62875229   0.09187999   0.23562877
C    2.97091986  -1.95137171   0.14955127
N    2.15226675  -2.74793487   0.04962239
C   -3.94995287   0.02798065  -2.04443408
H   -3.83557434   0.38719083  -1.04304216
H   -4.76217590  -0.66749249  -2.08329222
H   -4.15341054   0.85081819  -2.69745969
C   -2.65274920  -0.67232426  -2.48989527
N   -1.68692211  -1.19373310  -2.82156137
C    0.74627898  -2.61828560   3.67100488
H    0.51979052  -3.62276435   3.96190966
H    1.51557150  -2.22840135   4.30431238
H    1.08154965  -2.60821013   2.65493837
C   -0.51749450  -1.74822853   3.80320654
N   -1.45843130  -1.10043149   3.90163669
C   -4.06495737  -3.03742947   3.09024675
H   -5.00828495  -3.54243648   3.09132736
H   -4.05471246  -2.29920852   3.86472978
H   -3.28120929  -3.74536328   3.26190848
C   -3.85002679  -2.35418648   1.72694785
N   -3.69000121  -1.84548103   0.71190986
C   -0.27103931   1.69518734  -4.12243451
H   -0.47783378   1.65799998  -5.17160243
H   -1.19175529   1.69766649  -3.57729688
H    0.30701953   0.83946132  -3.84229160
C    0.51976167   2.97674926  -3.80020347
N    1.10854895   3.93093036  -3.56028781
C    3.97371510   2.49502113  -2.40740719
H    3.95121332   3.40911695  -2.96312537
H    3.17686963   1.85969614  -2.73344177
H    4.91036031   2.00316697  -2.56763928
C    3.80489341   2.80170240  -0.90772528
N    3.67919799   3.03004054   0.20885607
C   -3.42683194   1.37981341   2.32179979
H   -3.45047355   1.02728228   1.31181808
H   -4.28773721   1.98740620   2.50773579
H   -3.42818039   0.54497945   2.99109011
C   -2.15180261   2.21425361   2.54453228
N   -1.20248532   2.83553227   2.71036674
