72
Energy:   -316.80898353
C    0.01355612  -0.27495723   1.17007093
H   -0.19975181  -1.27471313   0.85402023
H    1.02274274  -0.02774886   0.91447463
H   -0.65444142   0.40359656   0.68196936
C   -0.17049749  -0.16846134   2.69531940
N   -0.30753377  -0.08917032   3.83093622
C    2.75350584   2.25419177   3.31476120
H    2.71781919   3.24882565   3.70760986
H    3.68313611   1.79767008   3.58360056
H    1.94495517   1.68178495   3.71910678
C    2.63060359   2.30355046   1.78046698
N    2.53909728   2.34030025   0.63811519
C    0.19165405  -2.65026428  -3.18183376
H   -0.14888531  -2.13756756  -2.30657654
H    0.54292542  -3.62395161  -2.91083469
H   -0.61593182  -2.74330479  -3.87756906
C    1.33852997  -1.85287219  -3.83024834
N    2.19243123  -1.25917754  -4.31302248
C   -0.87277752   3.52026738  -0.07171387
H   -0.57622306   4.42884314   0.40937418
H   -0.19519046   2.73689333   0.19680054
H   -1.86233595   3.25827812   0.23979027
C   -0.85058864   3.71713952  -1.59891687
N   -0.83406801   3.86371979  -2.73598892
C   -1.07494736  -4.72996491  -0.17044127
H   -1.53388726  -4.10563466  -0.90833427
H   -1.59425262  -5.66417378  -0.12069262
H   -0.05302696  -4.90364825  -0.43579365
C   -1.13780717  -4.03399595   1.20188371
N   -1.18460915  -3.51581541   2.22364203
C    3.62297070  -1.01544745  -0.79596828
H    3.68912945  -0.88429837  -1.85583766
H    4.59203820  -1.24311632  -0.40357287
H    3.25900473  -0.11488527  -0.34717476
C    2.65685594  -2.17266953  -0.48123132
N    1.93753960  -3.03427397  -0.24689535
C   -2.99502211   0.75195541  -2.07942804
H   -3.40678276   1.42748611  -1.35900343
H   -3.68964804   0.62011591  -2.88255459
H   -2.07958953   1.15279304  -2.46180414
C   -2.72019061  -0.60746246  -1.41006214
N   -2.51556606  -1.61961085  -0.91168880
C    1.95278219  -3.06373249   3.46838918
H    1.69748308  -3.67596832   2.62881201
H    1.05835702  -2.70386923   3.93250246
H    2.51308802  -3.64123272   4.17369050
C    2.80110568  -1.86933388   2.99366901
N    3.43272107  -0.98004983   2.64021827
C   -3.68462251  -1.22430683   2.46590388
H   -4.65904503  -1.30848555   2.89985649
H   -2.94348627  -1.41612308   3.21344832
H   -3.58441857  -1.93618060   1.67338006
C   -3.49308309   0.19748821   1.90607219
N   -3.35047328   1.25607924   1.48925206
C   -0.10789824   1.42393126  -5.53317780
H   -0.27062088   1.78744567  -6.52629350
H    0.88644819   1.03685698  -5.45350493
H   -0.23602282   2.22447067  -4.83487998
C   -1.12041302   0.30565955  -5.22352925
N   -1.87427629  -0.52694456  -4.99298183
C    2.51945335   2.17049536  -2.83283195
H    3.19929598   2.39270089  -2.03700604
H    2.11776281   3.08195077  -3.22371922
H    3.03776014   1.64731620  -3.60906691
C    1.37314587   1.29185642  -2.29844186
N    0.51966785   0.63766978  -1.90056415
C   -2.38955689   2.66096386   4.50900750
H   -2.21859287   1.62949796   4.73649284
H   -3.26080326   2.75100266   3.89441668
H   -2.53592007   3.20704940   5.41744984
C   -1.17101807   3.22996119   3.75867079
N   -0.26376052   3.65360556   3.20001100
