72
Energy:   -317.70370009
C   -2.71135766   3.37674597  -1.23501467
H   -3.45893150   3.93175479  -1.76227053
H   -1.78261122   3.43878656  -1.76272681
H   -2.59136740   3.78385710  -0.25279170
C   -3.14480782   1.90271777  -1.13031599
N   -3.46753117   0.80523677  -1.05236307
C   -0.22642073   1.48774413   4.76069535
H   -0.80472773   2.36167371   4.54457433
H    0.48564394   1.32870042   3.97802806
H    0.28812592   1.62119393   5.68931367
C   -1.15949599   0.26677276   4.86168785
N   -1.85421292  -0.64229592   4.93688137
C    3.37502858  -2.50125530  -3.05096010
H    4.29029491  -2.76116253  -3.54048636
H    2.55272569  -2.94212393  -3.57474623
H    3.39303775  -2.86468366  -2.04473219
C    3.21531068  -0.96959404  -3.04076372
N    3.09639345   0.17079739  -3.03317206
C    1.42070065   2.79802832  -4.12778361
H    1.39034825   3.81046808  -4.47266714
H    1.97743636   2.20187824  -4.82027875
H    1.89137305   2.76230088  -3.16752836
C   -0.01431679   2.25030221  -4.01678333
N   -1.08275250   1.84249522  -3.93413857
C    0.79334031  -4.52252052  -1.18755472
H    0.96063946  -3.48417517  -1.38440518
H   -0.16292380  -4.80901376  -1.57275553
H    1.55719340  -5.10296288  -1.66138405
C    0.82948272  -4.76922289   0.33212671
N    0.85639238  -4.95290401   1.46359862
C    1.91901813  -1.86284048   2.97407979
H    1.44464917  -2.79384830   3.20451137
H    1.23434404  -1.06004416   3.15195203
H    2.78229762  -1.73933190   3.59407434
C    2.34469732  -1.85607180   1.49409621
N    2.66163483  -1.85103221   0.39218116
C    0.12694635   0.05187459  -1.12228186
H   -0.76655219   0.17418906  -1.69812882
H    0.52816529  -0.92581383  -1.28975663
H    0.84534036   0.78767223  -1.41793534
C   -0.19848996   0.22397541   0.37306844
N   -0.44079208   0.35211229   1.48642471
C   -1.83435701  -2.86826275   2.37592461
H   -1.17424311  -2.10986021   2.74195114
H   -1.47287775  -3.83012576   2.67433940
H   -2.81328238  -2.71418524   2.77948915
C   -1.89576683  -2.79718807   0.83879182
N   -1.94148924  -2.74426974  -0.30567342
C   -3.87891346   0.40361374   2.24732391
H   -3.96236668  -0.03650311   3.21904039
H   -3.22165579  -0.18671743   1.64365136
H   -4.84513655   0.44269544   1.78930137
C   -3.31412296   1.83044270   2.37682610
N   -2.89361076   2.89278172   2.47324637
C   -2.57589445  -1.44491335  -3.54741653
H   -2.90615918  -1.54328421  -2.53442662
H   -3.22412939  -2.00356930  -4.18975140
H   -2.59581752  -0.41322277  -3.83046548
C   -1.13890952  -1.98415006  -3.67350404
N   -0.06900891  -2.38563630  -3.76738193
C    3.73842248   1.50046078  -0.01500835
H    4.01493042   0.49445024  -0.25246639
H    4.60101973   2.13081822  -0.07395393
H    2.99972411   1.84087978  -0.71023401
C    3.16213495   1.55117166   1.41219910
N    2.73306269   1.58892821   2.47481991
C    0.23880777   3.91587042   1.83694063
H    1.11989323   4.22537293   2.35924016
H   -0.11985023   2.99849969   2.25490531
H   -0.51491054   4.66948189   1.93116140
C    0.57169430   3.70610873   0.34805293
N    0.81954345   3.54993161  -0.76049165
