72
Energy:   -317.07268219
C    0.37800358   0.28042310   1.18366515
H    0.61382324   1.28821556   1.45503875
H    1.14504027  -0.37412707   1.54160073
H   -0.55915134   0.00364569   1.61959406
C    0.28344248   0.17037064  -0.34948411
N    0.21303744   0.08843158  -1.49098342
C    2.93009916   2.24235050   3.62236190
H    3.47690220   2.86168135   4.30231478
H    3.14518977   2.53971707   2.61727074
H    3.21662121   1.22081073   3.76114481
C    1.42116160   2.39324539   3.89057482
N    0.29768900   2.50559349   4.09027153
C    1.59129914  -2.12408504  -3.90212652
H    2.46993251  -2.69679742  -3.69022059
H    1.05833411  -2.57533592  -4.71281759
H    0.96528607  -2.09720708  -3.03478327
C    1.99478672  -0.68902501  -4.28865012
N    2.29520156   0.37944241  -4.57643451
C    1.49808087   3.29289502  -2.51229544
H    0.62621104   3.87671694  -2.72180712
H    1.34891061   2.29184652  -2.85949743
H    2.34241465   3.72122144  -3.01082933
C    1.75240631   3.27691953  -0.99352510
N    1.94176316   3.26502506   0.13726846
C   -1.17864207  -3.25804308  -1.21121010
H   -1.20180647  -2.32908574  -1.74168333
H   -2.05889382  -3.82160186  -1.44024601
H   -0.31276493  -3.81438378  -1.50385477
C   -1.12461385  -2.98322866   0.30310756
N   -1.08438738  -2.77861683   1.43058589
C    2.53795462  -3.10725374   2.01751756
H    3.07532624  -4.00776671   2.23014005
H    1.56334195  -3.16156644   2.45578617
H    3.06665956  -2.27150157   2.42603742
C    2.40631476  -2.93587664   0.49275501
N    2.30830290  -2.80827860  -0.64250002
C   -3.62207187   0.32280259  -1.65970299
H   -4.03652895   1.02478700  -0.96663487
H   -3.96778082   0.54943338  -2.64662898
H   -2.55412376   0.38348160  -1.63317054
C   -4.06504880  -1.10104406  -1.27495353
N   -4.39486526  -2.16116262  -0.98849007
C   -1.09431429  -0.75992877   4.55101807
H   -1.54474377  -1.53655453   3.96889618
H   -1.35711583   0.19223290   4.13965133
H   -1.44488585  -0.82154656   5.56007799
C    0.43676891  -0.92388599   4.52860701
N    1.57672995  -1.04595960   4.51192096
C   -4.38612712  -1.97438722   2.44660128
H   -5.13376286  -2.21349608   1.71943697
H   -4.84086528  -1.89108300   3.41157419
H   -3.64721841  -2.74803599   2.46610975
C   -3.71908253  -0.63666670   2.07625641
N   -3.22243750   0.35932703   1.80051782
C   -1.16983680   1.33182111  -4.46113043
H   -1.97748884   1.83797467  -4.94734741
H   -0.26873059   1.48004334  -5.01874756
H   -1.04645721   1.72375170  -3.47316941
C   -1.48191589  -0.17408061  -4.38071481
N   -1.71427295  -1.29529288  -4.32084173
C    3.93909294   0.28955775  -1.46469829
H    2.98276724   0.62547038  -1.80748693
H    4.15246075  -0.67011904  -1.88706510
H    4.69165996   0.98755809  -1.76691925
C    3.92526295   0.18271296   0.07152855
N    3.91496589   0.10316216   1.21531927
C   -1.51429544   3.52766596   1.40733250
H   -0.51287144   3.83109980   1.63089024
H   -1.73647487   2.61964483   1.92794083
H   -2.19607294   4.29212560   1.71665432
C   -1.65457539   3.29756885  -0.10890523
N   -1.75902019   3.12625110  -1.23781314
