72
Energy:   -320.66167504
C    3.11198914  -1.58284480   2.41890604
H    3.98173938  -1.78287118   3.00918067
H    2.65930627  -2.50712019   2.12617353
H    2.41449023  -1.01049228   2.99406425
C    3.51560162  -0.78844905   1.16286768
N    3.81610946  -0.19698531   0.22769003
C   -0.33555969  -0.28981917   1.23402127
H    0.31256893  -1.12047606   1.42067226
H   -1.31907175  -0.64776143   1.01157921
H   -0.37149162   0.33637292   2.10090734
C    0.19885780   0.51962804   0.03786360
N    0.59675591   1.12229827  -0.85273016
C   -0.96019693  -0.09360169   5.07202840
H   -1.35160179   0.20632532   6.02163158
H   -0.58484961   0.76407828   4.55395646
H   -0.16721009  -0.79677007   5.21908346
C   -2.07839635  -0.74765475   4.23929515
N   -2.91094665  -1.23462697   3.61928739
C   -1.52623568  -3.89487753   1.77154172
H   -2.49423401  -3.59093389   2.11139119
H   -1.50604265  -4.95858328   1.65743027
H   -1.31684684  -3.43114761   0.83026070
C   -0.46346606  -3.46881175   2.80139058
N    0.32781423  -3.15158640   3.56815987
C    3.40217918   2.01067765  -2.74161557
H    4.34046752   1.72561347  -3.16969685
H    3.24969742   1.47530230  -1.82782038
H    3.40560213   3.06202274  -2.54271636
C    2.26627661   1.67834568  -3.72694841
N    1.42054552   1.43090943  -4.46057351
C    2.07008011  -1.72076670  -2.47606772
H    2.12134760  -2.38374473  -3.31435882
H    3.04262121  -1.32137033  -2.27720736
H    1.39389693  -0.92086751  -2.69478371
C    1.56975849  -2.49266439  -1.24097573
N    1.19724630  -3.06737732  -0.32139361
C   -0.82269706   3.58239395  -2.98615613
H   -0.97760572   2.58485671  -2.63144085
H   -0.59761469   3.55814815  -4.03193295
H   -1.70907958   4.15978431  -2.82539078
C    0.35203556   4.22198837  -2.22292467
N    1.22667739   4.69819548  -1.65466415
C   -1.25667129  -5.16108715  -1.86802340
H   -2.11597761  -4.68317556  -1.44601232
H   -0.49058614  -5.23827345  -1.12501943
H   -1.52382328  -6.13987262  -2.20788795
C   -0.73800244  -4.32911112  -3.05562539
N   -0.35182990  -3.70966715  -3.93984906
C   -4.24716005   0.32171310   0.90504249
H   -5.29244089   0.31329572   0.67653149
H   -4.10212900   0.69295294   1.89804102
H   -3.85892958  -0.67296952   0.83588559
C   -3.51023366   1.23112102  -0.09571559
N   -2.96155846   1.90821655  -0.84082547
C    3.05181890   3.11794479   0.95379509
H    2.51392406   2.98969982   0.03775876
H    4.03930074   2.72018553   0.84624845
H    3.11076535   4.15989872   1.18992305
C    2.31990958   2.37536160   2.08714364
N    1.77496983   1.82247466   2.93097316
C   -0.87956581   4.02158886   1.11540255
H   -1.59179131   4.34064312   0.38339203
H   -0.08450254   3.49269507   0.63265537
H   -0.48297155   4.87583830   1.62321153
C   -1.56959079   3.09411864   2.13288205
N   -2.08334575   2.40357491   2.89044179
C   -1.55477879  -0.35864930  -3.37883268
H   -2.36903783   0.27362101  -3.66539271
H   -1.30315108  -1.00680170  -4.19214753
H   -0.70692880   0.24365602  -3.12728193
C   -1.96528120  -1.20266188  -2.15787792
N   -2.27091890  -1.83106761  -1.24882160
