72
Energy:   -317.64760039
C   -0.20011529   0.95340841   0.00716384
H   -0.47362460   1.17909259  -1.00237045
H    0.64062387   1.55128217   0.29107179
H   -1.02410390   1.16573588   0.65590024
C    0.16942603  -0.53749489   0.11782810
N    0.44456635  -1.64754016   0.20022266
C   -0.34770975   3.22305319   3.24066840
H    0.10158732   4.19267459   3.18712724
H    0.26701059   2.51607388   2.72375618
H   -0.44341984   2.93039655   4.26540777
C   -1.74135096   3.26625178   2.58683503
N   -2.77898018   3.29841509   2.10002636
C    1.80724785   2.65787857  -3.14037055
H    1.13633871   3.32204645  -2.63672172
H    1.25080088   2.00997850  -3.78495674
H    2.50332051   3.22659190  -3.72084199
C    2.57190023   1.81594151  -2.10207929
N    3.14121868   1.18908111  -1.32902425
C    3.83951293  -0.92845616   1.18481423
H    4.28524806  -1.62212346   1.86675708
H    4.60682043  -0.43441861   0.62618627
H    3.19203905  -1.45368412   0.51413378
C    3.02551528   0.11479892   1.97261284
N    2.41945703   0.89154975   2.55916471
C   -2.47929672  -2.98621846  -1.19530260
H   -3.37840418  -2.51491237  -1.53349857
H   -2.38976228  -3.95096044  -1.64934620
H   -1.63723511  -2.38458047  -1.46708018
C   -2.52605608  -3.14194890   0.33608945
N   -2.56087055  -3.25789729   1.47628043
C    3.42753505   3.80835700   1.18441770
H    3.31144758   3.58445280   2.22426903
H    4.03410644   4.68279874   1.07341373
H    3.89812704   2.98301269   0.69222969
C    2.04430170   4.05994852   0.55595354
N    1.01442159   4.24726984   0.08803340
C   -2.40054037  -0.38005986  -4.03644460
H   -3.02338421  -0.18424329  -3.18872908
H   -2.65375268  -1.33273077  -4.45261854
H   -2.55019420   0.38189826  -4.77259855
C   -0.92428212  -0.38740551  -3.59802969
N    0.17485924  -0.39287468  -3.27160986
C    2.57766248  -2.58914947  -2.26015675
H    2.28394832  -1.59921534  -1.97968825
H    3.15840348  -2.54800838  -3.15790193
H    3.16278120  -3.02310325  -1.47643531
C    1.32242263  -3.44855950  -2.49971322
N    0.38783950  -4.08842933  -2.67807390
C   -4.20932218   0.01042742   1.99168965
H   -5.27770848  -0.00513017   2.04833653
H   -3.83455086   0.84184765   2.55131984
H   -3.81734776  -0.89860995   2.39777610
C   -3.77518451   0.14452963   0.52024781
N   -3.45194928   0.24437482  -0.57530752
C   -2.50133727   3.77279130  -1.16896606
H   -3.10121623   4.64582424  -1.32015771
H   -1.67279617   4.01449146  -0.53651071
H   -3.09214175   3.00973997  -0.70679529
C   -1.98012210   3.26663156  -2.52680886
N   -1.59205371   2.88977263  -3.53778454
C    0.48120635  -5.11121525   0.72394531
H    0.58755633  -6.08465976   0.29267316
H    0.01077739  -4.45818533   0.01885835
H   -0.12022031  -5.17590577   1.60655519
C    1.87081517  -4.55695080   1.08915513
N    2.90544211  -4.14427572   1.36107045
C    0.26736280  -2.24601488   3.52588193
H    1.14549259  -2.14846417   2.92233234
H   -0.31771623  -3.06979682   3.17379537
H    0.55104845  -2.41894525   4.54299384
C   -0.56270798  -0.95189205   3.43740265
N   -1.18073341   0.01164123   3.37152580
