72
Energy:   -317.49797536
C    0.20055827  -0.72785676   0.60676323
H    0.59228673  -1.54057682   0.03149364
H   -0.76671572  -0.98991981   0.98173401
H    0.85700156  -0.52194630   1.42626440
C    0.08412574   0.52267258  -0.28442690
N   -0.00256357   1.45374851  -0.94795846
C    0.58408054  -0.72751390   4.58034075
H    1.32498071   0.03971166   4.49471326
H    0.91780235  -1.60458111   4.06625714
H    0.42678250  -0.95774111   5.61337117
C   -0.73618258  -0.23806807   3.95668372
N   -1.71917848   0.12634660   3.49234271
C    1.46175782  -1.38390411  -3.46147194
H    1.83627613  -0.94032695  -4.36029090
H    0.49722826  -0.97791466  -3.23841500
H    1.38133483  -2.44274683  -3.59293801
C    2.42668365  -1.08270243  -2.29966487
N    3.14511479  -0.85844408  -1.43464669
C    3.00870575   2.54063721  -2.35074239
H    3.83704549   1.94927408  -2.02052565
H    3.28592714   3.08310123  -3.23039015
H    2.17988003   1.90125040  -2.57239874
C    2.61041290   3.53125617  -1.24095102
N    2.31386578   4.26881702  -0.41466091
C   -2.16237778  -4.11775319  -0.87436646
H   -1.35299226  -4.33379773  -0.20869386
H   -2.20767779  -4.86787988  -1.63604681
H   -3.08175808  -4.10923043  -0.32703995
C   -1.93886896  -2.73945280  -1.52392927
N   -1.77245648  -1.71324550  -2.00755830
C    2.67571874  -3.80957967   0.84206453
H    3.12240874  -4.73542590   1.13901065
H    2.04958859  -3.44668588   1.63020679
H    3.44325170  -3.09267652   0.63751107
C    1.82930321  -4.03115402  -0.42524978
N    1.19910838  -4.19612620  -1.36882289
C   -3.43171466   0.83750928   0.43699655
H   -2.84450295   0.91535464  -0.45408296
H   -2.86941772   1.20864240   1.26824949
H   -4.32650955   1.41362533   0.32594929
C   -3.79831270  -0.63786315   0.68292756
N   -4.07126160  -1.73634499   0.86603438
C   -0.59832014   3.79107613   1.60553453
H   -1.15775609   4.27923239   2.37601170
H   -1.26247752   3.22412507   0.98718143
H   -0.09576260   4.52462635   1.01035465
C    0.43943425   2.84871612   2.24320485
N    1.21208957   2.14708626   2.71797938
C   -3.01519761  -3.29677524   3.54741741
H   -2.97649866  -3.78552993   4.49848072
H   -3.76353609  -3.75973206   2.93868135
H   -3.25754892  -2.26394322   3.68678363
C   -1.64503999  -3.41352836   2.85413766
N   -0.62489537  -3.50045637   2.33795937
C   -2.16402466   1.07687252  -3.78034753
H   -2.19998636   1.03494973  -2.71177399
H   -2.40303403   0.11488377  -4.18327588
H   -2.87220610   1.79726908  -4.13306121
C   -0.74901748   1.48492288  -4.23073578
N    0.30451969   1.78873492  -4.56607031
C    3.92726570   1.06550835   1.19953208
H    4.19426722   1.88418764   1.83464985
H    3.05756698   1.32326681   0.63200779
H    4.73716342   0.85170857   0.53375853
C    3.62905127  -0.17604768   2.06046575
N    3.40701708  -1.10044257   2.70147001
C   -0.60459348   4.67048211  -2.34515356
H   -0.80832932   5.28500430  -3.19706574
H    0.04807108   3.87167830  -2.62947828
H   -0.13685787   5.25952687  -1.58413532
C   -1.92390721   4.08792471  -1.80511821
N   -2.90619624   3.65418426  -1.40303735
