72
Energy:   -317.06415132
C    0.32142271  -0.02073114   1.23661728
H    1.32458220   0.12628613   1.57860727
H    0.00025566  -1.00994527   1.48802578
H   -0.32330050   0.69339093   1.70487014
C    0.26778278   0.16360113  -0.29136975
N    0.22784541   0.30084489  -1.42902555
C    2.81097617   1.53702605   3.84802405
H    3.38279183   1.89620670   4.67803387
H    3.20721233   1.94161674   2.94016813
H    2.86266929   0.46878969   3.81488801
C    1.34330314   1.97522885   4.00775567
N    0.25055386   2.30149076   4.12668312
C    1.53618626  -1.69400606  -4.00335494
H    2.10331888  -1.14930849  -4.72900315
H    1.77699490  -2.73441119  -4.07019391
H    1.77272917  -1.33540136  -3.02338085
C    0.03290717  -1.49668007  -4.27319642
N   -1.08635245  -1.34976190  -4.47410567
C    1.86419330   4.14512388  -1.70831470
H    2.07863195   5.18659671  -1.58893886
H    0.89295535   4.02835816  -2.14186021
H    2.59676280   3.70136308  -2.34965500
C    1.89906615   3.45291947  -0.33309220
N    1.92503058   2.93754183   0.69082347
C   -1.10887988  -3.40585764  -1.57481478
H   -0.88046538  -3.87261580  -2.51015634
H   -0.76578370  -4.02628327  -0.77340593
H   -0.62219514  -2.45437053  -1.52276361
C   -2.63189296  -3.21055553  -1.45696637
N   -3.76584542  -3.06514424  -1.36922287
C    2.21012589  -3.17486057   1.92657273
H    2.82607813  -4.01784187   2.16084938
H    1.21971300  -3.34350219   2.29473221
H    2.61656807  -2.29770998   2.38516917
C    2.16409632  -2.98132059   0.39947628
N    2.12982521  -2.83722128  -0.73751643
C   -3.30198604   0.29167085  -1.84578696
H   -2.42451523  -0.12954159  -2.29022506
H   -3.41301419   1.30604826  -2.16767253
H   -4.15983060  -0.27345282  -2.14518139
C   -3.17043539   0.25131230  -0.31194680
N   -3.07248996   0.22126353   0.83006691
C   -1.75189593  -0.51218291   4.42495855
H   -2.05488210  -0.39566418   3.40538856
H   -1.79755523   0.43476097   4.92105492
H   -2.40578391  -1.20325020   4.91460700
C   -0.30899463  -1.04815474   4.47364157
N    0.76531097  -1.44721013   4.50988830
C   -4.18295009  -2.85762765   2.08158267
H   -4.52522844  -3.33328090   2.97684782
H   -4.65610131  -3.30894377   1.23462294
H   -4.42831972  -1.81666383   2.11455499
C   -2.65618953  -3.02169472   1.96460325
N   -1.51944689  -3.14385012   1.87750675
C   -0.68139671   2.09083467  -4.28128614
H   -1.07542241   1.75283460  -3.34565807
H   -1.11057611   1.51821574  -5.07678076
H   -0.92104034   3.12484203  -4.41655926
C    0.84831366   1.91324738  -4.28828140
N    1.98725256   1.78102557  -4.29348969
C    3.82064854   0.40038232  -1.52650662
H    2.89098336   0.88910921  -1.73088093
H    3.87643990  -0.50899694  -2.08759108
H    4.62995364   1.04212101  -1.80596288
C    3.91357939   0.08218272  -0.02260739
N    3.98277063  -0.15473134   1.09711394
C   -1.58222213   3.45569361   1.50740872
H   -0.57659011   3.60470380   1.84117568
H   -1.95051496   2.52621078   1.88861885
H   -2.19795929   4.25569879   1.86203323
C   -1.61331296   3.42758127  -0.03202074
N   -1.63646149   3.40665036  -1.17819594
