72
Energy:   -317.02385139
C    1.71208267  -1.95458520  -3.64281680
H    2.53170284  -1.43468326  -4.09317769
H    1.51028124  -2.84869444  -4.19485298
H    1.96137521  -2.20724672  -2.63340386
C    0.46408841  -1.05236108  -3.65291442
N   -0.46510005  -0.38061422  -3.66043255
C   -1.93623665  -0.89845117   3.26598754
H   -2.14172209  -0.32424942   2.38680139
H   -1.95002006  -0.25695279   4.12225207
H   -2.68102450  -1.65851902   3.37773283
C   -0.54871320  -1.55422219   3.13814761
N    0.48436108  -2.04247352   3.04296497
C    4.53305427   0.83963066  -0.18816068
H    5.15097981   1.43724181  -0.82528635
H    4.19272874  -0.02048457  -0.72600770
H    5.09793930   0.52639385   0.66488486
C    3.32050343   1.66826864   0.27517460
N    2.41770422   2.28522728   0.62014877
C   -4.26404466   2.01415200   1.05484754
H   -3.53372961   1.44325993   1.58928401
H   -5.06589794   2.27390937   1.71398070
H   -3.81135545   2.90617642   0.67502651
C   -4.81261813   1.17810358  -0.11634424
N   -5.22105601   0.55562752  -0.98834975
C   -3.16257050  -1.84686074  -2.12139521
H   -4.19891806  -2.02451584  -2.31969447
H   -2.56644892  -2.47793508  -2.74692165
H   -2.93111455  -0.82213553  -2.32453427
C   -2.86209720  -2.15773375  -0.64333101
N   -2.63838117  -2.38919283   0.45715497
C    1.86907805   1.04441345   3.84862205
H    2.02276518   2.06059934   4.14635796
H    1.42102784   0.50067482   4.65391603
H    1.22290105   1.01632954   2.99623384
C    3.22275511   0.40486125   3.48788475
N    4.23062921  -0.07131444   3.21929943
C   -3.20071543   2.13784475  -3.34922538
H   -2.99167288   2.45318516  -4.35010590
H   -4.21095878   1.79056926  -3.28833869
H   -2.53433277   1.34573419  -3.07831193
C   -3.00667774   3.32385659  -2.38624807
N   -2.86220785   4.20689631  -1.66926769
C   -0.55847103   4.12399816   1.09086451
H   -1.04105812   5.05640436   1.29733138
H   -0.88775944   3.75431568   0.14228500
H    0.50154642   4.26816879   1.06902578
C   -0.91561056   3.10659694   2.19038536
N   -1.18151717   2.34909549   3.00902862
C    0.62633031  -0.56427775  -0.08915585
H    1.09649621  -0.35303553   0.84851196
H    1.33511709  -0.43615495  -0.88042378
H    0.26937294  -1.57297986  -0.08992849
C   -0.55673059   0.39906899  -0.29875060
N   -1.43757321   1.11632443  -0.45480342
C    0.06236513  -4.63481933   0.66797361
H   -0.86503935  -4.48304649   1.17962399
H    0.81366998  -4.00534186   1.09715684
H    0.35836988  -5.65872133   0.76233982
C   -0.11020889  -4.28558166  -0.82194291
N   -0.23869809  -4.02555834  -1.93125349
C    0.70024511   2.91241424  -2.61470541
H    0.72720953   3.73748630  -3.29546175
H    0.73278298   3.27806436  -1.60964801
H   -0.20213812   2.35691411  -2.76310760
C    1.91336572   1.99816771  -2.86786872
N    2.81658915   1.31746961  -3.05636031
C    3.83820040  -3.26165066   2.43879996
H    3.91250212  -4.32711588   2.50332366
H    3.08105860  -2.91555759   3.11100155
H    4.77737128  -2.82199844   2.70254807
C    3.46927500  -2.85906236   0.99886361
N    3.19459327  -2.55931706  -0.07323446
