72
Energy:   -317.24643195
C    0.77765552  -0.38059615  -0.40824962
H    0.56144495  -0.63462367  -1.42492223
H    1.27441007  -1.20084643   0.06643288
H    1.40993283   0.48223827  -0.38292642
C   -0.53612713  -0.07627518   0.33536580
N   -1.51429803   0.15030561   0.88902129
C    4.03775504  -1.93171181   1.25533469
H    5.06117218  -2.15741869   1.47114465
H    3.80674727  -2.24215852   0.25775896
H    3.40508628  -2.44959834   1.94556862
C    3.80784757  -0.41467926   1.38707235
N    3.63667100   0.71482042   1.48515702
C    1.39981601   1.87420176  -4.06705986
H    2.06613891   2.71074422  -4.03373306
H    0.94975462   1.81508200  -5.03600191
H    1.94613319   0.97507770  -3.87209179
C    0.30227078   2.04936103  -3.00107970
N   -0.51490153   2.17977508  -2.20740901
C   -3.02522106   3.16079490  -0.18355319
H   -2.87442604   2.14536842  -0.48533143
H   -2.66058370   3.81730043  -0.94574685
H   -4.06970165   3.33629390  -0.03137078
C   -2.26378575   3.42478587   1.12874443
N   -1.69686255   3.62133914   2.10580966
C    1.39556328  -3.29096524  -3.00743419
H    1.85239998  -3.96730866  -3.69935903
H    0.64488993  -3.80752228  -2.44657999
H    2.13878325  -2.90753209  -2.33997469
C    0.74878608  -2.12593534  -3.77943457
N    0.26723105  -1.25851762  -4.35422394
C   -0.86539915  -3.64839291   1.69437539
H   -1.68459403  -3.99543225   1.09991461
H   -1.01171337  -2.61621463   1.93541321
H   -0.81156033  -4.22117577   2.59655069
C    0.44672689  -3.81010198   0.90458084
N    1.42366437  -3.93050173   0.31654290
C   -3.62498244   1.06089601   3.51426855
H   -2.93592181   1.76822967   3.92630584
H   -4.57900525   1.17668000   3.98472965
H   -3.72322465   1.22987160   2.46227292
C   -3.10223872  -0.36697916   3.75821832
N   -2.71303225  -1.43009713   3.93985002
C    0.31293329   1.06987873   3.86345814
H   -0.37479628   1.42032570   3.12243511
H    1.14366624   1.74143315   3.92507395
H   -0.17881724   1.02282121   4.81259781
C    0.81486937  -0.33331414   3.47524437
N    1.18858360  -1.37805502   3.18620158
C   -4.33922890  -2.06341810   0.87740003
H   -4.91433153  -2.31736434   1.74323400
H   -3.29916542  -2.05920143   1.12869521
H   -4.51710435  -2.78437823   0.10702615
C   -4.75241804  -0.66634809   0.37833077
N   -5.06005612   0.37383403   0.00675102
C   -2.78865451  -0.40012942  -2.74944837
H   -2.14901454  -0.17252411  -3.57646513
H   -2.76385744   0.40647070  -2.04682440
H   -3.79021615  -0.53688320  -3.10026424
C   -2.30344622  -1.69179120  -2.06550192
N   -1.94218660  -2.65349212  -1.55627270
C    5.39246572   1.37956118  -1.65891684
H    5.23766327   1.74709009  -0.66601258
H    5.28512064   2.18298459  -2.35740589
H    6.37696874   0.96786439  -1.73739388
C    4.35281196   0.28679883  -1.96970696
N    3.57874247  -0.52681240  -2.20110434
C    1.43328682   3.31999463   0.82173316
H    1.06400185   4.28684676   1.09325803
H    2.03764768   2.93319814   1.61548093
H    0.60960545   2.65990777   0.64642363
C    2.28044021   3.43517998  -0.45915070
N    2.91118441   3.52094071  -1.41282696
