72
Energy:   -317.14190016
C   -1.12818284   0.72000955  -0.72508751
H   -0.20900354   0.89590437  -1.24380768
H   -1.54609533  -0.21135292  -1.04573092
H   -0.94214952   0.68374496   0.32799158
C   -2.11738301   1.85951414  -1.03267863
N   -2.85388750   2.70792711  -1.26169421
C    3.54740865   0.27853895  -0.58535204
H    4.31126661   0.34271650   0.16117487
H    3.27594090   1.26342934  -0.90346408
H    3.91282286  -0.27864146  -1.42256261
C    2.31280930  -0.42941267   0.00300921
N    1.39359396  -0.95651482   0.44107091
C   -3.88227285  -0.85543326  -3.20548385
H   -4.32911639  -0.18208029  -2.50418020
H   -3.61613840  -1.76429746  -2.70745031
H   -4.57922530  -1.06885861  -3.98881393
C   -2.61909409  -0.20929903  -3.80422418
N   -1.67860009   0.27177727  -4.25001357
C    1.13887969  -1.83885394  -3.42829682
H    1.87369854  -1.42952671  -2.76694013
H    0.80502723  -1.07961710  -4.10431534
H    1.56876411  -2.64648710  -3.98311856
C   -0.05692650  -2.35832557  -2.60866471
N   -0.94725856  -2.74509581  -1.99841135
C   -4.24147427   1.84930452   1.95928479
H   -3.92476408   2.73216618   1.44435749
H   -4.85664750   2.12278494   2.79095146
H   -4.80049640   1.22793431   1.29123360
C   -3.00733442   1.07934359   2.46491212
N   -2.08846120   0.50607267   2.84137464
C    0.60328652  -1.21676551   3.86786835
H    1.41172587  -0.77955477   4.41574860
H   -0.26991787  -1.24890177   4.48542842
H    0.40288562  -0.62800647   2.99717819
C    0.98492794  -2.64714542   3.44364771
N    1.26907733  -3.71212827   3.12779615
C   -1.95384352  -2.64612432   1.23158391
H   -1.89915049  -3.61792430   0.78715884
H   -2.10035749  -2.74430245   2.28694821
H   -1.04252668  -2.11711792   1.04569972
C   -3.13330712  -1.86752806   0.61982131
N   -4.01147138  -1.28782775   0.16433625
C    4.68949744  -2.86711391   2.22381950
H    5.09729738  -2.81049532   1.23619927
H    3.85196506  -3.53302138   2.22623515
H    5.43654581  -3.23115242   2.89783270
C    4.23279890  -1.46624754   2.67170327
N    3.89276608  -0.42323886   3.00517310
C    1.36151688  -4.54506915  -0.10830539
H    1.63859640  -5.22180551   0.67281881
H    0.86743724  -5.08465586  -0.88909382
H    0.70121999  -3.79963962   0.28315588
C    2.62417103  -3.86733323  -0.67220125
N    3.56427444  -3.36272804  -1.09204736
C   -1.41503062   5.61910272  -0.15498892
H   -0.47698294   5.37410417  -0.60769461
H   -1.44589042   6.66749998   0.05669468
H   -2.21078908   5.36681133  -0.82432936
C   -1.57540598   4.82591872   1.15525491
N   -1.69481273   4.23535719   2.13079100
C    0.06424304   3.29342583  -3.48434588
H    0.38258870   4.04927092  -4.17155358
H   -0.09074235   3.73050771  -2.52006477
H   -0.85045056   2.85921318  -3.83031420
C    1.14560333   2.20144243  -3.38518852
N    1.95072522   1.38841115  -3.31136136
C    1.21607122   2.26290891   2.47339356
H    0.21410009   2.04649523   2.78018200
H    1.63115643   3.01271033   3.11401919
H    1.80790560   1.37362233   2.53504206
C    1.20894915   2.77513810   1.02109520
N    1.20364644   3.15651601  -0.06020695
