72
Energy:   -317.25762079
C   -0.00703040   0.44567189   1.17463675
H   -0.25653194   1.45554285   1.42525558
H    0.86067106   0.14575487   1.72422117
H   -0.82617430  -0.19629578   1.42319234
C    0.28217921   0.34782231  -0.33479469
N    0.49750891   0.27496884  -1.45863500
C    2.69670868   2.15844556   3.68668499
H    3.26923690   2.69401266   4.41488791
H    3.02026442   2.43484071   2.70494343
H    2.83712566   1.10683878   3.82562864
C    1.20491948   2.50335516   3.85161640
N    0.09421462   2.76015603   3.97441533
C    1.75562940  -1.76680205  -4.00862242
H    2.61976924  -2.34842648  -3.76392764
H    1.27609902  -2.18502283  -4.86887883
H    1.07553142  -1.77357829  -3.18259584
C    2.18091274  -0.31801706  -4.31153518
N    2.49755551   0.76066922  -4.53706749
C    1.68933231   3.50168629  -2.31263719
H    0.85968287   4.12777011  -2.56680455
H    1.53612948   2.52396543  -2.71944168
H    2.58803286   3.91915494  -2.71631570
C    1.81044811   3.40693783  -0.78033379
N    1.90062433   3.33639330   0.36053573
C   -0.96172308  -3.87688639  -2.09655506
H   -1.45117451  -3.61303786  -3.01073307
H   -1.20021764  -4.88879643  -1.84345922
H    0.09692158  -3.77958201  -2.21780868
C   -1.43768281  -2.94028092  -0.97057437
N   -1.79205646  -2.24293557  -0.13223056
C    1.45612715  -2.93007291   1.67653820
H    1.50078479  -3.93115669   2.05168769
H    0.44645337  -2.57831896   1.71809680
H    2.07911336  -2.29733327   2.27355396
C    1.94839542  -2.90619538   0.21753107
N    2.31491153  -2.88841748  -0.86876606
C   -3.45486481   0.40913041  -1.27958424
H   -3.70084281   1.27475302  -1.85845599
H   -4.17693365  -0.35908290  -1.46224237
H   -2.48294471   0.05848592  -1.55764690
C   -3.46043944   0.77360044   0.21665455
N   -3.46459000   1.04496494   1.33067234
C   -2.43550644   0.56923151   4.51424412
H   -2.27367964   1.38465343   3.84059780
H   -2.36651187   0.92053153   5.52257300
H   -3.40793024   0.15555547   4.34642519
C   -1.36815145  -0.51459357   4.27408480
N   -0.57345714  -1.32155062   4.09527528
C   -2.34557483  -4.00546937   2.88004460
H   -2.49609245  -3.03900257   2.44623986
H   -1.82047396  -3.90265313   3.80664969
H   -3.29378303  -4.46862806   3.05691837
C   -1.51998224  -4.87783688   1.91621276
N   -0.90529103  -5.52735414   1.19859615
C   -1.06978943   1.50123897  -4.27811860
H   -1.90577500   2.04658129  -4.66364430
H   -0.21945001   1.65969589  -4.90797047
H   -0.84840378   1.84084295  -3.28788801
C   -1.40907868  -0.00048433  -4.24192569
N   -1.66169495  -1.11858559  -4.21497842
C    4.02709751   0.23799879  -1.26977729
H    3.25594198   0.84256822  -1.69956227
H    4.03414087  -0.72124668  -1.74380008
H    4.97478127   0.71364801  -1.41313841
C    3.76289119   0.06388753   0.23736580
N    3.56617758  -0.06574622   1.35950234
C   -1.54628096   4.14282565   1.34407289
H   -2.08145998   5.05986543   1.47644222
H   -0.52373061   4.28266209   1.62644790
H   -1.98457079   3.38252187   1.95623241
C   -1.61692174   3.71598228  -0.13390363
N   -1.66951701   3.39817799  -1.23432434
