72
Energy:   -316.88657272
C   -0.12207740   0.44226233   0.96907305
H    0.73454957   1.08331527   0.98097005
H   -0.00216748  -0.32691849   1.70315858
H   -0.99863262   1.01413307   1.19159020
C   -0.26597651  -0.19639682  -0.42484500
N   -0.37311595  -0.67190759  -1.46268035
C    3.81782925   2.17177441   2.25408978
H    3.79453238   3.15715232   2.67048839
H    4.58840580   1.60173219   2.72965548
H    2.87279307   1.69543887   2.41191932
C    4.10245128   2.25956873   0.74316872
N    4.31436531   2.32493559  -0.38178069
C    0.60501434  -2.30011411  -4.50310802
H   -0.26221955  -1.72427442  -4.25569295
H    0.38404811  -2.93942219  -5.33217870
H    1.40749653  -1.64219673  -4.76400292
C    1.01623531  -3.15567781  -3.29046295
N    1.32240802  -3.79268388  -2.38759358
C    1.38554280   3.48103574  -1.63879565
H    1.48343140   4.10380083  -2.50336586
H    1.88856982   2.55220347  -1.80948110
H    1.82107407   3.97254265  -0.79402790
C   -0.10616862   3.21414067  -1.36463496
N   -1.21681557   3.01542515  -1.16050986
C    0.80549724  -3.68625071   0.90402137
H    0.48226205  -2.95158990   0.19642494
H    0.26979445  -4.59809516   0.74135202
H    1.85391155  -3.86190251   0.78206660
C    0.53279247  -3.17843052   2.33207976
N    0.32975137  -2.80033531   3.39533414
C   -2.27223074  -3.65829647  -1.71073361
H   -1.45969948  -3.23240519  -1.15999796
H   -1.96304655  -4.58793275  -2.14094358
H   -3.09917887  -3.82716425  -1.05305622
C   -2.69647607  -2.69023516  -2.83076628
N   -3.01234601  -1.96946951  -3.66468152
C   -3.81333850   0.55964279  -1.08001275
H   -4.81560686   0.33214250  -1.37767352
H   -3.21228355  -0.32304027  -1.14711450
H   -3.41243292   1.31397345  -1.72434114
C   -3.81289546   1.07180560   0.37232643
N   -3.81256559   1.45313408   1.45365895
C    2.20506633  -0.38280375   4.59138906
H    1.98803515  -1.23492868   5.20104532
H    2.96486252   0.20695896   5.06020543
H    2.54802897  -0.70888503   3.63172937
C    0.93027837   0.46411651   4.42038693
N   -0.01885921   1.09468714   4.29306808
C   -2.72216725  -1.00988164   3.68627193
H   -1.91877729  -1.38941786   4.28244053
H   -3.65583296  -1.25892667   4.14577601
H   -2.63604615   0.05370987   3.60718111
C   -2.65861744  -1.63597233   2.28072155
N   -2.61130172  -2.10212531   1.23422540
C   -1.54074250   1.22062653  -4.20150988
H   -1.90878891   0.96668450  -5.17359808
H   -1.87718402   2.20151997  -3.93777850
H   -1.90603771   0.51388372  -3.48598692
C   -0.00105173   1.19154118  -4.21182379
N    1.14531804   1.16988581  -4.21950297
C    3.26503802  -0.74354126  -1.77328074
H    3.55630264  -1.68814659  -2.18289746
H    4.02511141  -0.01784201  -1.97464643
H    2.34482512  -0.42956979  -2.21996769
C    3.07631555  -0.88036458  -0.25102478
N    2.93580310  -0.98223576   0.88236398
C   -1.61113985   3.77524167   2.54084292
H   -1.82912527   4.63251508   3.14289344
H   -1.82786824   2.88587256   3.09487404
H   -2.21156991   3.79914881   1.65551175
C   -0.12130381   3.78702710   2.15116394
N    0.98794683   3.79580188   1.86103023
