72
Energy:   -316.69233517
C    0.97639544  -1.12065382  -0.08091581
H    1.82327090  -0.51903422  -0.33734510
H    1.02686749  -2.05059899  -0.60774943
H    0.97725913  -1.30712574   0.97270963
C   -0.31635956  -0.37972897  -0.47003647
N   -1.27887442   0.17192326  -0.75975448
C    2.44485268   1.87699415   3.08600722
H    3.40323268   2.27806021   3.34204232
H    2.40582700   0.84351789   3.36042096
H    1.68193272   2.41414495   3.60976408
C    2.21970374   2.01409673   1.56873637
N    2.05207012   2.11617584   0.43905925
C   -0.84472130  -1.07072673  -4.31159344
H   -1.17861588  -0.20766984  -3.77442736
H   -1.54815376  -1.30485232  -5.08312898
H    0.11109540  -0.87086230  -4.74904940
C   -0.72740717  -2.26357517  -3.34466532
N   -0.64006146  -3.15170506  -2.62474338
C    1.63996877   5.68336127  -0.01212862
H    2.22566408   6.57861322  -0.03175340
H    0.74279463   5.83166604  -0.57602875
H    2.20194855   4.88001794  -0.44075120
C    1.27943401   5.33763294   1.44460972
N    1.01099950   5.08022249   2.52921764
C    0.18403373  -5.38441929  -0.34453346
H    1.03073354  -4.92886418  -0.81407489
H   -0.52526108  -5.67381347  -1.09156155
H    0.50074827  -6.24898777   0.20054665
C   -0.46956011  -4.37923269   0.62191106
N   -0.95619043  -3.63082558   1.34147294
C    2.21102128  -2.84192862   3.38360112
H    1.15089451  -2.93470861   3.49506090
H    2.48572119  -1.80893717   3.43226020
H    2.70057811  -3.37856758   4.16925488
C    2.63685372  -3.42277238   2.02239310
N    2.95390533  -3.85523696   1.00891186
C   -4.03577510   2.08824341  -1.83151335
H   -3.06212883   1.78897767  -2.15916126
H   -4.06907844   3.15370499  -1.73887637
H   -4.76605726   1.76931480  -2.54556629
C   -4.33810610   1.44451181  -0.46556840
N   -4.56320527   0.96522437   0.55143970
C   -2.63563786  -1.00375164   2.60089848
H   -2.76921976  -0.85013359   1.55044260
H   -3.33138490  -0.39660852   3.14146520
H   -2.80438021  -2.03410605   2.83498162
C   -1.19915877  -0.61573824   2.99785366
N   -0.12963479  -0.32684463   3.29340484
C   -3.69341579  -2.39711898  -0.85043613
H   -2.65844342  -2.38107132  -0.57937370
H   -4.01199822  -3.41008626  -0.98197176
H   -4.27213775  -1.93894865  -0.07580077
C   -3.89155512  -1.62172136  -2.16614861
N   -4.03907886  -1.04440258  -3.14575635
C    0.64586216   2.54896492  -2.70296597
H   -0.36758347   2.27376780  -2.49779608
H    0.68183667   3.13765048  -3.59574491
H    1.03350099   3.11854987  -1.88430352
C    1.49478124   1.27799711  -2.89158523
N    2.12684008   0.33170381  -3.03202084
C    4.66818535  -1.12055855  -0.79453436
H    4.12074648  -2.01656604  -1.00040188
H    5.69851280  -1.26697911  -1.04330223
H    4.27073117  -0.31744312  -1.37928634
C    4.54522344  -0.77612664   0.70140917
N    4.45367271  -0.51968143   1.81520712
C   -1.43987667   2.68060266   1.66175786
H   -0.71663827   1.89692546   1.57414256
H   -2.40651787   2.25604356   1.83569307
H   -1.17774418   3.31799057   2.48024567
C   -1.46683349   3.50219907   0.35950878
N   -1.48690406   4.11391494  -0.61007486
