72
Energy:   -318.27243880
C    0.08219406  -0.16902561   0.93791301
H   -0.12096293   0.76899962   1.41092050
H    1.07134530  -0.48918789   1.19084588
H   -0.62540267  -0.89823175   1.27327008
C   -0.03063997  -0.00877437  -0.58956466
N   -0.11465003   0.11053997  -1.72684121
C    3.35834614   1.11626747   3.44941169
H    2.42048507   1.11176613   3.96448113
H    3.37877791   1.92816404   2.75277290
H    4.15298838   1.23285302   4.15641282
C    3.53506801  -0.21357652   2.69318134
N    3.66664548  -1.20370582   2.13013347
C    1.13103469  -2.71793738  -3.52505533
H    1.93059831  -3.29879311  -3.11492753
H    0.62325214  -3.28881565  -4.27415744
H    0.44347073  -2.45828880  -2.74740662
C    1.70066719  -1.43399895  -4.15641966
N    2.12478448  -0.47804842  -4.62649910
C    1.62991321   2.69273852  -3.36826798
H    1.79933715   2.73383354  -4.42397007
H    1.74031575   1.68420511  -3.02831102
H    2.34043625   3.31740942  -2.86842563
C    0.20454771   3.18606835  -3.05752879
N   -0.85670171   3.55337484  -2.82616934
C   -2.17617340  -3.55121490  -1.16425931
H   -2.68128444  -3.92025738  -2.03234379
H   -2.26867261  -4.26110084  -0.36902038
H   -1.14107009  -3.40185011  -1.39042385
C   -2.80583747  -2.21333580  -0.73390753
N   -3.27465099  -1.21722399  -0.41349107
C    1.35521439  -3.61280398   2.49384436
H    0.75372948  -4.45840677   2.75475048
H    0.97356350  -2.73978392   2.98075059
H    2.36437935  -3.78295664   2.80614749
C    1.31775177  -3.40737135   0.96806784
N    1.28985916  -3.25441742  -0.16794213
C   -3.30934876   2.00968644  -1.05740668
H   -3.32758024   2.99530981  -1.47347683
H   -4.29247558   1.58893094  -1.09381511
H   -2.63793327   1.39671673  -1.62164817
C   -2.83447693   2.07891727   0.40591277
N   -2.48091327   2.13046276   1.49542063
C   -1.24601520   1.90282841   4.94875955
H   -1.73207175   2.32795256   4.09557805
H   -0.53497253   2.60082411   5.33878444
H   -1.97470195   1.67883428   5.69958666
C   -0.52106153   0.60875718   4.53472833
N    0.01869943  -0.35473766   4.22646327
C   -3.29592157  -1.17022649   3.02760609
H   -4.25061837  -1.17343595   2.54444577
H   -2.73069391  -0.32477258   2.69500353
H   -3.43266924  -1.11331175   4.08730410
C   -2.53856139  -2.46434587   2.67652121
N   -1.97467231  -3.42787657   2.41512257
C   -1.62679621   0.48809882  -4.68754469
H   -1.99302271   1.08137488  -3.87587860
H   -2.10845555   0.78842555  -5.59457679
H   -0.57001855   0.62657193  -4.78212415
C   -1.92744481  -0.99732159  -4.41416473
N   -2.15129137  -2.10328461  -4.21062093
C    3.67550947  -0.59053812  -1.25353851
H    4.45969750  -1.01534653  -0.66236415
H    4.01819318  -0.45809907  -2.25848969
H    2.82991238  -1.24615965  -1.24853249
C    3.27068353   0.77386255  -0.66521310
N    2.96927222   1.78972086  -0.22717809
C    0.38037774   3.85936695   0.42359841
H    1.20798647   4.35098551  -0.04360086
H   -0.48789531   4.48106417   0.35656423
H    0.19229613   2.92947981  -0.07120892
C    0.70960146   3.59536637   1.90465055
N    0.95472349   3.39880593   3.00736119
