72
Energy:   -316.88828139
C    1.58963728   3.44224243   2.29990606
H    1.53902411   4.36927374   2.83183787
H    2.54475243   2.98862720   2.46387969
H    0.81905978   2.78761163   2.65000307
C    1.39688579   3.70305667   0.79444174
N    1.25337354   3.89724472  -0.32644487
C    3.68599972  -1.16044073   2.43629687
H    3.66739348  -2.17337817   2.78055220
H    4.47621224  -0.63147265   2.92686392
H    3.84976859  -1.14601943   1.37900274
C    2.33975634  -0.48464133   2.75649045
N    1.33741695   0.01852205   2.99488912
C   -0.83213678   2.93315676  -3.17994614
H   -0.70913545   3.21928798  -2.15627638
H   -1.69260271   2.30407810  -3.27352772
H   -0.96294005   3.80823318  -3.78163613
C    0.41752211   2.16728744  -3.65259488
N    1.34794996   1.59706291  -4.00450335
C    1.83810506  -4.14480688  -0.51849482
H    1.66357520  -4.70360860  -1.41413992
H    0.90793312  -3.97298553  -0.01833816
H    2.49211173  -4.69625628   0.12421658
C    2.48677031  -2.79416712  -0.87431168
N    2.96973107  -1.78855443  -1.13923351
C   -2.14965180   5.22453922  -0.15089623
H   -2.87240711   4.59475520  -0.62618250
H   -1.23669977   5.20364284  -0.70855295
H   -2.52096467   6.22729206  -0.11200437
C   -1.88897948   4.71781718   1.27979686
N   -1.69489709   4.34053958   2.34501289
C    0.59670018   0.53131786  -0.46643057
H    1.04886410   0.32384361  -1.41374382
H    1.35326994   0.81280136   0.23590007
H   -0.10555103   1.33142507  -0.57399812
C   -0.13225728  -0.72675865   0.04097905
N   -0.67499925  -1.66345380   0.41876858
C   -1.99345707   0.99662745   2.83860471
H   -1.27670589   0.72172682   3.58398889
H   -2.57853123   1.81954954   3.19270433
H   -1.48404884   1.28100509   1.94164780
C   -2.91614223  -0.20140716   2.54711687
N   -3.60312328  -1.09339839   2.33009092
C   -2.97901022  -4.14298591  -0.01896492
H   -2.81071973  -4.95614995   0.65582596
H   -3.97282137  -4.20442539  -0.41070932
H   -2.85763112  -3.21626747   0.50195650
C   -1.96557092  -4.21799259  -1.17607978
N   -1.21101930  -4.27383846  -2.03760439
C   -3.93582518  -0.50711517  -1.03995622
H   -4.40633884  -0.48171014  -2.00061831
H   -4.66974381  -0.71153834  -0.28864157
H   -3.19011114  -1.27436477  -1.02822108
C   -3.27561261   0.85480545  -0.75554171
N   -2.78405435   1.86881725  -0.54378218
C   -0.76831717  -2.88069964   3.57832722
H   -0.62145235  -1.84831917   3.81816354
H   -1.12715665  -3.40002664   4.44229064
H   -1.48504714  -2.96487326   2.78831960
C    0.56832564  -3.49796714   3.12670034
N    1.56351696  -3.95755085   2.79044359
C    0.68203929  -1.92764900  -3.91984727
H    0.71185528  -2.08142014  -4.97832052
H    0.68970452  -2.87449421  -3.42152560
H    1.53647648  -1.35874741  -3.61787517
C   -0.60165879  -1.16237586  -3.54826113
N   -1.55743037  -0.59259522  -3.27159837
C    3.98920497   1.63574590  -1.93232799
H    4.96413277   1.72829594  -2.36343176
H    3.38022089   2.45696655  -2.24797676
H    3.54333481   0.71730077  -2.25257389
C    4.10423950   1.64247363  -0.39664515
N    4.18988793   1.64748273   0.74674053
