72
Energy:   -317.34856393
C   -0.95649634   0.12105339   1.00754089
H   -0.70267202   0.20280535   2.04377928
H   -1.36112525  -0.85060048   0.81502257
H   -1.68328088   0.86581659   0.75852059
C    0.30657819   0.32994501   0.15161624
N    1.24699460   0.48547431  -0.48565857
C    3.74377034   1.64791597   1.65545216
H    3.79176384   2.58879630   1.14816425
H    3.70154175   0.85673035   0.93632689
H    4.61336310   1.52779578   2.26723534
C    2.48390741   1.60535072   2.54006145
N    1.54588219   1.57365896   3.19869327
C   -0.12384686  -0.76749183  -5.58989670
H   -0.84265421  -0.81515235  -6.38106334
H    0.81494125  -0.43434618  -5.98052433
H   -0.46223402  -0.08182620  -4.84139429
C    0.04657014  -2.16522545  -4.96627922
N    0.17345335  -3.20590167  -4.50196765
C   -0.10046390   2.43185438  -2.94673812
H   -0.40544930   2.72961241  -3.92817800
H    0.10077354   1.38097548  -2.93924706
H    0.78436747   2.96641862  -2.67066997
C   -1.22464210   2.74641311  -1.94230984
N   -2.06164387   2.98061638  -1.19446733
C   -2.62026869  -3.69646338   2.65389074
H   -3.64180723  -3.38630750   2.58203998
H   -2.56556100  -4.62367548   3.18510057
H   -2.21628102  -3.82395849   1.67132367
C   -1.81019383  -2.62486415   3.40692049
N   -1.20705627  -1.82700981   3.96758536
C    2.11763110  -2.01058012   2.69066392
H    1.54642376  -1.33427425   3.29169032
H    2.89177967  -1.47189690   2.18527945
H    2.55484194  -2.76101416   3.31563954
C    1.19628901  -2.67919331   1.65351150
N    0.51030794  -3.17700622   0.88130437
C   -1.73272947  -3.10772809  -1.65086694
H   -0.71295726  -3.42942071  -1.68932058
H   -2.32380353  -3.71727965  -2.30200244
H   -2.09764299  -3.19793013  -0.64906815
C   -1.82453182  -1.63760648  -2.10021625
N   -1.89288284  -0.54303413  -2.43477723
C   -1.43303615   1.26894973   5.16441362
H   -1.19387474   2.16066077   5.70529570
H   -0.53184771   0.81571821   4.80756675
H   -1.94408013   0.58611834   5.81053623
C   -2.33876776   1.62063440   3.96960479
N   -3.01312612   1.88247962   3.08001531
C   -4.58782125   0.96058180  -0.18431156
H   -4.13481137   1.62107120   0.52522068
H   -5.64408815   1.13012643  -0.20561746
H   -4.17743767   1.14433789  -1.15524827
C   -4.31022717  -0.49852071   0.22258079
N   -4.10354576  -1.58488886   0.52553065
C    3.91988603   1.73047082  -2.10488335
H    4.47090198   1.03576771  -1.50599338
H    3.20604227   2.24118321  -1.49292009
H    4.59294319   2.44140349  -2.53670262
C    3.18553588   0.97206694  -3.22611188
N    2.63877881   0.40740078  -4.06091748
C    2.34095960  -2.43890156  -2.03253563
H    2.80754908  -2.58713727  -2.98396645
H    1.55306499  -1.72147405  -2.12958691
H    1.93750712  -3.36687368  -1.68469524
C    3.38407062  -1.92252516  -1.02413352
N    4.16071419  -1.53805946  -0.27333232
C   -0.47247042   4.00156137   1.66153015
H   -0.12701069   3.80786012   2.65553095
H   -1.17733501   3.24891394   1.37589602
H   -0.94306324   4.96194510   1.62829503
C    0.72210790   3.98136134   0.68984369
N    1.61152576   3.96632151  -0.03362105
