72
Energy:   -316.97293028
C    0.28615236   0.05888197   1.22606201
H   -0.20068259   0.94760885   1.56965545
H    1.29644234   0.04671489   1.57829093
H   -0.23232012  -0.79914295   1.60006550
C    0.27898120   0.03220556  -0.31369022
N    0.27364195   0.01234377  -1.46010575
C    2.66652402   1.88542784   3.75905568
H    3.26489569   2.28127846   4.55287796
H    3.05549013   2.21786749   2.81932787
H    2.68752351   0.81625964   3.79562716
C    1.21526956   2.37603813   3.91641524
N    0.13474465   2.74131979   4.03357659
C    1.86447756  -1.98173959  -3.91422478
H    1.13710343  -2.31213979  -4.62602725
H    1.45423278  -2.04777122  -2.92820341
H    2.73500744  -2.60035429  -3.98050209
C    2.24888681  -0.52082877  -4.21350574
N    2.53509696   0.56688575  -4.43633402
C    1.68797756   3.29032397  -2.22195375
H    0.87618390   3.94658628  -2.45692400
H    1.51493508   2.33426219  -2.67017385
H    2.60029424   3.70181375  -2.60044223
C    1.79235156   3.12957315  -0.69392717
N    1.87006275   3.00988685   0.44375808
C   -1.06748508  -3.35607241  -1.89783523
H   -0.96057997  -2.36961549  -2.29830273
H   -1.99059128  -3.77960926  -2.23457040
H   -0.25325260  -3.96587225  -2.22960129
C   -1.06465175  -3.28860047  -0.35931662
N   -1.06254221  -3.23836455   0.78618041
C    2.20258718  -3.05684550   2.14073082
H    1.17285617  -3.16133389   2.41209110
H    2.60165687  -2.17135299   2.58966901
H    2.75036658  -3.90915575   2.48482971
C    2.32187540  -2.95421777   0.60879157
N    2.41069090  -2.87780676  -0.53180684
C   -3.47110698   0.28812530  -1.81186845
H   -3.86671785   0.96035684  -1.07940891
H   -3.83001615   0.56520615  -2.78104826
H   -2.40226967   0.33656679  -1.80006491
C   -3.92348969  -1.14789701  -1.48815591
N   -4.26030919  -2.21708090  -1.24713722
C   -1.82914553   0.20516111   5.03174792
H   -2.62755009  -0.49334508   5.17153147
H   -2.07872972   0.87796671   4.23806067
H   -1.67774153   0.75913253   5.93457215
C   -0.53873142  -0.55515534   4.67348781
N    0.42204055  -1.12124550   4.40674687
C   -3.83667233  -2.33991319   2.28980974
H   -3.05842780  -2.83174398   2.83509691
H   -4.04030073  -2.88304011   1.39067252
H   -4.72160591  -2.29891898   2.88990234
C   -3.39004640  -0.90934626   1.93540388
N   -3.05751309   0.15577586   1.67153262
C   -0.89402466   1.51371177  -4.46212359
H   -1.71862764   2.08664350  -4.83182526
H   -0.02056966   1.73151644  -5.04051496
H   -0.71541534   1.76572532  -3.43767887
C   -1.22139953   0.01292864  -4.57201313
N   -1.46514500  -1.10447261  -4.65383088
C    4.02256712   0.19244668  -1.22589671
H    3.04827390   0.50974588  -1.53407541
H    4.25337910  -0.74655812  -1.68403959
H    4.74618166   0.92214584  -1.52392396
C    4.05116039   0.03701644   0.30597269
N    4.07244937  -0.07870845   1.44651909
C   -1.67404873   3.54547054   1.30404261
H   -0.68509917   3.81008243   1.61526519
H   -1.97690800   2.64855641   1.80276136
H   -2.34983198   4.33709757   1.55212069
C   -1.68888318   3.31616156  -0.21871717
N   -1.69992810   3.14543060  -1.35248104
