72
Energy:   -318.39397177
C    0.62366568   0.78164132   0.01479186
H    0.94138972   0.68261857   1.03172161
H    0.16132051   1.73670097  -0.12303804
H    1.47101204   0.69872141  -0.63330345
C   -0.38773512  -0.33107121  -0.31768257
N   -1.14076899  -1.15953626  -0.56522490
C    2.44569231   2.87843554   3.87422415
H    1.54138941   3.22324720   4.33055885
H    3.27905872   3.40264337   4.29327745
H    2.55782418   1.82941542   4.05278040
C    2.38640166   3.13750234   2.35732962
N    2.34225707   3.33038935   1.22793270
C    1.60213808  -2.06815519  -2.89062185
H    1.89146614  -2.72232024  -2.09484705
H    1.70068954  -2.57874694  -3.82575968
H    0.58421933  -1.76823423  -2.75355276
C    2.50892519  -0.82343585  -2.88732030
N    3.18406942   0.10331427  -2.88486214
C    1.47707054   3.16799875  -2.91322491
H    2.41075881   2.94931080  -3.38788476
H    1.62344146   3.24325311  -1.85595889
H    1.09526406   4.09492195  -3.28730550
C    0.47210682   2.04035740  -3.21334640
N   -0.27613435   1.20077717  -3.43680049
C    0.02550908  -4.44998231  -0.06443603
H   -0.59726124  -5.25458725  -0.39559791
H    1.02944207  -4.80103545   0.05294936
H    0.00546512  -3.66223380  -0.78827967
C   -0.49423285  -3.92046659   1.28503848
N   -0.88120434  -3.52621808   2.28978359
C    2.12080394  -1.73773490   3.22433801
H    1.17547585  -2.14716317   3.51351524
H    2.14788239  -0.69616135   3.46783417
H    2.90440076  -2.24644932   3.74595544
C    2.31460368  -1.91538340   1.70694462
N    2.45889639  -2.04765078   0.57717628
C   -3.31309446   1.75253855  -1.80991687
H   -2.86598240   2.64492887  -2.19544315
H   -4.34454249   1.71953364  -2.09262647
H   -2.80643395   0.89869234  -2.20884150
C   -3.20129966   1.74456624  -0.27400074
N   -3.11806334   1.73863049   0.86955864
C   -2.39437594  -0.61708309   3.02462361
H   -2.44110822  -0.89754046   1.99309080
H   -3.26576590  -0.05117140   3.28020643
H   -2.34977270  -1.49699283   3.63180439
C   -1.13715933   0.23848985   3.26752553
N   -0.20110442   0.87550279   3.44837705
C   -3.87048857  -3.12977883   0.01428648
H   -3.15888675  -2.69617956   0.68549041
H   -3.39593708  -3.89600724  -0.56242315
H   -4.67742990  -3.55341998   0.57488702
C   -4.41627132  -2.04131300  -0.92856203
N   -4.82263139  -1.23090072  -1.63055561
C   -2.30716758  -1.66543740  -3.95007117
H   -1.81201175  -1.57511936  -4.89429759
H   -1.95395576  -0.90291117  -3.28773119
H   -3.36251340  -1.55648428  -4.08890024
C   -2.00927323  -3.04970914  -3.34455427
N   -1.78747734  -4.08036236  -2.89371941
C    4.72254517   0.80988179  -0.00721052
H    3.97528690   1.50867363  -0.32057167
H    4.54486440  -0.13596716  -0.47486252
H    5.68940138   1.17118559  -0.28925256
C    4.66221566   0.64545166   1.52279703
N    4.61729761   0.52302596   2.66195719
C   -0.99892442   4.26530662   1.78440313
H   -0.26427268   4.93705719   2.17675269
H   -0.79261660   3.27233695   2.12550049
H   -1.97018099   4.56321999   2.12027125
C   -0.95531931   4.29884950   0.24538608
N   -0.92285332   4.32382369  -0.90048206
