72
Energy:   -317.42415662
C    0.28331402   0.43258256   1.16089275
H   -0.60518309   0.11319123   1.66434309
H    0.38713081   1.49302175   1.25882072
H    1.13307480  -0.05066706   1.59595079
C    0.18964662   0.06154516  -0.33080349
N    0.11990698  -0.21470906  -1.44143914
C    3.07649592   2.04334526   3.33330782
H    3.76291785   2.39931329   4.07291033
H    3.31164734   2.48393889   2.38700969
H    3.15208994   0.97856572   3.25962491
C    1.64131776   2.42937919   3.73684401
N    0.57276238   2.71679899   4.03729505
C    1.17604699  -1.94892195  -4.29259517
H    1.92117130  -2.58650376  -4.72058977
H    0.23614240  -2.12703645  -4.77192145
H    1.08778587  -2.15573331  -3.24648899
C    1.58341573  -0.47727265  -4.49234260
N    1.88672028   0.61843715  -4.64106364
C    1.83623920   2.96993881  -2.09315678
H    1.01142721   3.41638745  -2.60819949
H    1.75856778   1.90435598  -2.15146174
H    2.75274846   3.28605131  -2.54590699
C    1.81605242   3.40606432  -0.61634026
N    1.80102244   3.73077958   0.48321677
C   -1.31255291  -3.31004755  -1.69003552
H   -0.62983989  -3.04417620  -0.91021788
H   -1.19599277  -2.63467526  -2.51173199
H   -1.10910312  -4.30828059  -2.01720225
C   -2.75572694  -3.22802527  -1.15888483
N   -3.83023561  -3.16695595  -0.76341899
C    2.39773006  -2.79872366   1.69081780
H    1.41857537  -2.88668297   2.11321505
H    2.80322699  -1.83724321   1.92751734
H    3.03011717  -3.56169814   2.09437147
C    2.31320353  -2.95782849   0.16139277
N    2.25026969  -3.07628927  -0.97733369
C   -3.59747047   0.23774645  -1.00812119
H   -4.45189467  -0.38120886  -1.18631714
H   -2.72583034  -0.23222948  -1.41341762
H   -3.74133388   1.18820720  -1.47804329
C   -3.41519246   0.43704082   0.50801089
N   -3.27947820   0.58542453   1.63684014
C   -1.22301146  -0.15388145   4.76200100
H   -1.73749615  -0.09356080   3.82574938
H   -1.20079742   0.81302551   5.21970895
H   -1.73191756  -0.84125625   5.40498588
C    0.21793720  -0.64301631   4.52532817
N    1.29078898  -1.00719945   4.34911449
C   -3.76221750  -2.72876355   2.70666257
H   -4.36858174  -3.14033903   1.92702919
H   -4.12024815  -1.75260522   2.95930476
H   -3.81182639  -3.36096646   3.56849639
C   -2.30280746  -2.63144101   2.22473864
N   -1.21621036  -2.55897996   1.86592437
C   -1.38014914   1.68370606  -4.01963890
H   -0.82945755   1.97121011  -4.89083370
H   -0.75004836   1.75974755  -3.15819256
H   -2.22462069   2.33018584  -3.90203453
C   -1.86420056   0.23002205  -4.17487105
N   -2.22459884  -0.85231177  -4.29044843
C    4.25889257  -0.35178906  -2.14968619
H    3.69667413  -1.21886696  -2.42715065
H    5.30385742  -0.58013873  -2.17804087
H    4.04890095   0.44349755  -2.83402662
C    3.86632888   0.08019034  -0.72459407
N    3.57404737   0.40181863   0.33645179
C   -1.58314427   3.85525349   1.67502645
H   -0.61151663   4.23446642   1.91385162
H   -1.79894631   3.01085965   2.29577408
H   -2.31479932   4.61771747   1.84304029
C   -1.61793184   3.42738733   0.19606723
N   -1.64383278   3.10882152  -0.90508513
