72
Energy:   -317.48829945
C   -1.51605269   2.84490608   2.42729603
H   -2.48138446   2.42012595   2.60784132
H   -1.38107968   3.70246638   3.05281318
H   -0.76050363   2.12006989   2.64787985
C   -1.40838245   3.26524915   0.94969026
N   -1.32821707   3.57821367  -0.15045440
C    2.39632447   0.25417141   2.70079131
H    1.79697968   0.25026639   3.58717201
H    3.43176399   0.26256214   2.97040898
H    2.18514866  -0.62169425   2.12358838
C    2.07260879   1.50830939   1.86775703
N    1.83158776   2.44207211   1.24752515
C    3.99143853  -1.33796900  -1.45929525
H    5.02991268  -1.41762508  -1.70450240
H    3.47610663  -2.21089852  -1.80182433
H    3.88102758  -1.25184833  -0.39849756
C    3.39741297  -0.09090501  -2.14015134
N    2.95513393   0.83759082  -2.64707964
C    0.00476459   0.24658949  -0.97714606
H    0.58557451   1.13784075  -0.86211908
H   -0.79982492   0.43060643  -1.65808114
H    0.62497951  -0.53623969  -1.36108750
C   -0.56580695  -0.17430486   0.38992967
N   -0.99062340  -0.48767983   1.40777970
C   -3.85893673  -2.37325767   0.28157632
H   -4.87092897  -2.03259927   0.21284675
H   -3.37299999  -1.88480594   1.10022122
H   -3.84879494  -3.43131381   0.44067831
C   -3.11640535  -2.04374597  -1.02673144
N   -2.56355699  -1.79840954  -2.00082603
C   -0.19471393  -4.23754765  -0.74892892
H   -1.00607138  -4.44949894  -0.08434190
H    0.25518186  -5.15495762  -1.06650067
H   -0.56193214  -3.70631767  -1.60206700
C    0.85404226  -3.37668418  -0.02048912
N    1.63488891  -2.73573219   0.52186742
C   -3.61662697   1.72747923  -2.04625543
H   -3.05791999   0.95127822  -2.52610821
H   -3.05697818   2.63903368  -2.07383818
H   -4.54716213   1.86468498  -2.55633187
C   -3.88694872   1.33519702  -0.58179620
N   -4.08821555   1.04312509   0.50856026
C   -3.23459085  -0.50995947   3.90235862
H   -3.36449085  -0.03220781   2.95379153
H   -4.01143242  -0.19740778   4.56848751
H   -3.27875481  -1.57155981   3.77605202
C   -1.86599527  -0.11949390   4.49064662
N   -0.84701365   0.17122547   4.92865378
C    0.31736130  -2.89134653   3.67778243
H    0.43477518  -1.87120166   3.37708554
H    1.17496919  -3.45397269   3.37305368
H    0.21838496  -2.94034530   4.74206712
C   -0.94349146  -3.47931089   3.01736725
N   -1.88225365  -3.91707708   2.52565812
C   -0.24291262  -0.78815655  -4.67032131
H   -1.09174697  -0.52697726  -4.07352502
H   -0.57409934  -1.20847554  -5.59689910
H    0.33994295   0.08796360  -4.86420780
C    0.61656082  -1.82007424  -3.91662954
N    1.25647786  -2.58838386  -3.35547175
C    4.65506345   3.29984109  -0.65963968
H    3.79646817   3.75731899  -0.21418676
H    4.44202606   3.05967142  -1.68034174
H    5.48222506   3.97730086  -0.61779454
C    5.00691963   2.01204173   0.10806472
N    5.26889256   1.05321658   0.67965555
C    1.17161779   3.76173635  -2.40695385
H    2.11854941   3.61622970  -2.88344992
H    1.21925068   3.40025428  -1.40099117
H    0.93221465   4.80458835  -2.40025110
C    0.08474801   2.99049242  -3.17863828
N   -0.72447595   2.41626626  -3.75319242
