72
Energy:   -317.23162425
C    0.37443387   0.37018300   1.16955199
H    0.49175196   1.40564259   1.41236897
H    1.21022240  -0.18145905   1.54644410
H   -0.52639531  -0.00019560   1.61252554
C    0.29919330   0.20691545  -0.35991934
N    0.24317328   0.08535534  -1.49868027
C    2.65326991   2.50974653   3.48843957
H    2.73363940   2.51755500   2.42149067
H    3.54743267   2.91248405   3.91642849
H    1.81551184   3.10447224   3.78737408
C    2.45641695   1.06290416   3.97782293
N    2.30985098  -0.01433575   4.34219109
C    1.71837862  -2.18156973  -3.80034929
H    2.64672627  -2.70263731  -3.69283463
H    1.09664081  -2.70107317  -4.49924653
H    1.22511633  -2.13231450  -2.85210601
C    1.98701913  -0.75481348  -4.31396285
N    2.18703419   0.30747139  -4.69637150
C    1.26885617   3.30245473  -2.73208607
H    0.34600130   3.79191545  -2.96374805
H    1.22293578   2.28336104  -3.05494588
H    2.07222742   3.79981517  -3.23420790
C    1.50691473   3.34890314  -1.21130645
N    1.68416015   3.38348609  -0.07901689
C   -0.90619428  -3.37365159  -1.09729663
H   -0.98309613  -2.46426310  -1.65586521
H   -1.75676572  -3.99015039  -1.30065977
H   -0.01406346  -3.89197252  -1.38074876
C   -0.85532747  -3.04919856   0.40727733
N   -0.81745482  -2.80762853   1.52750103
C    2.76046878  -2.67143835   2.21621550
H    3.13163804  -3.62126680   2.54019000
H    1.80168639  -2.49401934   2.65684904
H    3.43953984  -1.90145354   2.51768685
C    2.62883748  -2.66794869   0.68185536
N    2.53083200  -2.66535047  -0.46054550
C   -3.61482502   0.00149324  -1.60318759
H   -4.06493736   0.68839964  -0.91728769
H   -3.99496738   0.17958249  -2.58740052
H   -2.55364745   0.13858454  -1.60049611
C   -3.94718192  -1.44076543  -1.17771278
N   -4.19463675  -2.51459257  -0.86092744
C   -1.04927335  -0.57977447   4.72233134
H   -0.96298526  -1.14521352   3.81804531
H   -1.99492789  -0.78175019   5.18041690
H   -0.26212079  -0.85619954   5.39231576
C   -0.94533913   0.92257727   4.40024916
N   -0.86795538   2.04114643   4.16044433
C   -4.08084770  -2.30492811   2.63549628
H   -3.24345488  -2.92077262   2.88928555
H   -4.63540009  -2.76521271   1.84460513
H   -4.71103123  -2.18898639   3.49242413
C   -3.58093237  -0.92297357   2.17518516
N   -3.20872269   0.10595440   1.83246261
C   -1.29713760   1.05804653  -4.51061309
H   -2.17017367   1.48640062  -4.95695487
H   -0.44940411   1.24223873  -5.13696784
H   -1.13387135   1.50060826  -3.55020571
C   -1.49570248  -0.46052296  -4.34900039
N   -1.64354306  -1.59116698  -4.22867238
C    3.91598526   0.47205981  -1.62210773
H    4.11848282  -0.51470298  -1.98293194
H    4.65579519   1.14787125  -1.99741995
H    2.94772160   0.78207827  -1.95565402
C    3.95334281   0.47340248  -0.08256150
N    3.98115721   0.47440216   1.06370065
C   -1.79927418   3.45059202   1.21253415
H   -0.77049820   3.54645769   1.49061674
H   -2.23994716   2.63754198   1.75073119
H   -2.31808001   4.35650253   1.44719508
C   -1.89901050   3.17896698  -0.30003734
N   -1.97326872   2.97672978  -1.42621556
