72
Energy:   -316.86998689
C   -1.79568616   3.68596028  -1.44289354
H   -2.14424933   3.01993083  -0.68144185
H   -1.63493195   3.13936821  -2.34859453
H   -2.52687395   4.44871325  -1.61162825
C   -0.47301547   4.33343583  -0.99242972
N    0.51177298   4.81551081  -0.65703893
C    2.63171646  -1.21742909   2.43590994
H    3.34442803  -1.80099419   2.98033088
H    3.10988317  -0.76785169   1.59084435
H    1.83523563  -1.84860628   2.10104768
C    2.06407794  -0.11616164   3.35056645
N    1.64144525   0.70378203   4.03156979
C   -0.06208854  -3.88307253   0.00866545
H    0.07225954  -4.93912045   0.11643176
H   -0.96581041  -3.58663744   0.49888185
H    0.76745874  -3.37113523   0.44988037
C   -0.14869353  -3.52660429  -1.48700496
N   -0.21317489  -3.26119748  -2.60059956
C    2.47350014  -1.33870784  -3.47970912
H    3.00743881  -0.44490290  -3.72653377
H    1.42432566  -1.17543656  -3.61190018
H    2.79413066  -2.13396998  -4.11975075
C    2.75358679  -1.71552507  -2.01302570
N    2.96212403  -1.99608263  -0.92101323
C    5.33802533   0.58889241  -0.00955022
H    5.09078331  -0.42691594   0.21827640
H    4.70780046   1.24444849   0.55433091
H    6.36124409   0.77239179   0.24392647
C    5.12825121   0.84328488  -1.51383719
N    4.97206484   1.03269164  -2.63384722
C   -0.26540479   0.00746007  -0.51976146
H   -1.08735686   0.69217225  -0.49821602
H   -0.42812782  -0.76787387   0.19945866
H   -0.18516733  -0.42286179  -1.49612417
C    1.03631164   0.75723080  -0.18067710
N    2.00549868   1.31546918   0.07178661
C    0.98582826   3.65750690   2.56387790
H    1.81520597   3.25567958   2.02021662
H    1.15830245   3.54292882   3.61365102
H    0.87673213   4.69628669   2.33164164
C   -0.29907500   2.90567696   2.16970108
N   -1.25574388   2.34590539   1.87621853
C    2.47723711   3.25625654  -2.96806890
H    2.13259434   4.25834739  -3.11617522
H    3.29809768   3.06050348  -3.62591976
H    2.79615066   3.13498828  -1.95392530
C    1.33284030   2.27026679  -3.26770226
N    0.48078486   1.53615260  -3.49079292
C   -2.20991850  -0.90125476  -3.90854683
H   -2.57128795  -0.83566172  -4.91353929
H   -2.43059688  -1.87054424  -3.51272105
H   -1.15147841  -0.74467926  -3.89917712
C   -2.89556845   0.17404283  -3.04528601
N   -3.40606600   0.97465076  -2.40254909
C   -3.40363858  -4.34834775   2.40883537
H   -2.34191386  -4.31585617   2.53761853
H   -3.63599613  -4.36176204   1.36445559
H   -3.79225676  -5.23113087   2.87205128
C   -4.03798878  -3.10525481   3.05992658
N   -4.51029133  -2.17971561   3.54469357
C   -4.07183624   0.11369196   0.84621334
H   -3.25259115   0.70274936   1.20223163
H   -4.71139520  -0.13997121   1.66567563
H   -4.62546362   0.67364546   0.12174948
C   -3.53363944  -1.17494180   0.19708526
N   -3.13292746  -2.13438820  -0.28622009
C   -1.90325357   0.05105221   4.26800333
H   -2.56662737   0.68079113   3.71278782
H   -1.11650102   0.64307826   4.68684061
H   -2.44446171  -0.43116502   5.05506075
C   -1.30189050  -1.01334562   3.33151001
N   -0.85414836  -1.80583818   2.63424817
