72
Energy:   -316.98453922
C   -2.34195855   2.73320093   3.76407981
H   -1.48992334   2.08595376   3.76677867
H   -3.18628289   2.21303561   4.16588020
H   -2.13646268   3.59583872   4.36285070
C   -2.64881745   3.17184943   2.32011820
N   -2.87728784   3.49844317   1.24502315
C    2.77692276   1.21227890   1.83854095
H    3.06085627   0.70404189   2.73630322
H    3.60590715   1.78208333   1.47383985
H    2.48447425   0.49532705   1.10006075
C    1.59605808   2.15554421   2.13419132
N    0.71685065   2.85784812   2.35431647
C    3.08778249  -3.43219480  -2.35061281
H    4.12101051  -3.68617808  -2.23733204
H    2.54174956  -4.29435369  -2.67221688
H    2.69902535  -3.09300454  -1.41321378
C    2.94610516  -2.31396287  -3.39993872
N    2.84061996  -1.48138836  -4.18120956
C    1.34164190   1.64004982  -3.62644193
H    0.35588041   2.02849982  -3.77571036
H    1.60837924   1.01647477  -4.45403147
H    2.03668475   2.45012580  -3.55166602
C    1.37615711   0.81254879  -2.32811579
N    1.40185525   0.19643666  -1.36145297
C   -1.08846858   0.11544608   0.70802308
H   -1.15710636  -0.48041831  -0.17805517
H   -0.19429780  -0.13655388   1.23892206
H   -1.06447161   1.15115337   0.44037848
C   -2.31115887  -0.15490784   1.60442546
N   -3.22150736  -0.35619861   2.27183777
C    1.68561454  -2.52586842   1.29535356
H    2.15215410  -1.90587569   2.03213714
H    1.50835396  -1.95408874   0.40847941
H    2.32697986  -3.35093622   1.06554335
C    0.34618004  -3.05364988   1.84212771
N   -0.65108982  -3.44660717   2.24922591
C   -0.95789210  -1.52771090  -3.51623392
H   -1.28995066  -0.60276290  -3.09302181
H   -1.75600117  -1.97178485  -4.07365597
H   -0.12761825  -1.34495703  -4.16596113
C   -0.52626850  -2.48284071  -2.38794845
N   -0.20490510  -3.19397827  -1.54788864
C   -1.64621481  -1.53804541   5.06856691
H   -1.88178948  -2.43363725   4.53254452
H   -2.47335018  -0.86148727   5.01365564
H   -1.44817984  -1.77690259   6.09259254
C   -0.40172685  -0.87902364   4.44523712
N    0.52485100  -0.38835197   3.98113975
C   -3.39413597  -3.54064435   0.33574956
H   -3.38865048  -3.12624111   1.32222817
H   -2.46949423  -4.04861341   0.15713218
H   -4.20486656  -4.23291177   0.24420269
C   -3.56597819  -2.40962990  -0.69520950
N   -3.69392254  -1.56753823  -1.46280537
C   -4.31922674   1.70239871  -1.17186506
H   -4.98407072   1.18882688  -1.83453137
H   -4.70427928   2.67943689  -0.96685279
H   -4.23308617   1.15382767  -0.25723469
C   -2.93213613   1.82488607  -1.82957053
N   -1.89938412   1.91608347  -2.31926215
C    4.85293798   0.78149719  -1.78620066
H    5.88749690   1.04597130  -1.85432910
H    4.29543223   1.61531540  -1.41359682
H    4.48867447   0.51360451  -2.75596594
C    4.69060492  -0.41365968  -0.82867883
N    4.56974057  -1.30350830  -0.11576031
C   -0.01607965   4.27914648  -0.58928066
H   -0.09943857   4.98905427   0.20694946
H   -0.55195163   3.38958404  -0.33156187
H   -0.42781611   4.69692537  -1.48417337
C    1.46774531   3.93642497  -0.81820307
N    2.57252043   3.68125322  -0.98864622
