72
Energy:   -320.66058527
C    0.41521200   0.27216682   1.19500789
H    0.32127967   1.26806223   1.57483577
H    1.35549612  -0.13824227   1.49886516
H   -0.37905618  -0.33274127   1.57987587
C    0.34025039   0.30011967  -0.34291259
N    0.28443806   0.32093184  -1.48796429
C    2.37608803   2.01380110   3.99550715
H    1.55919618   2.64573789   4.27522804
H    2.58102238   2.13647834   2.95250605
H    3.24330526   2.27969438   4.56307577
C    2.00870420   0.54503082   4.27718604
N    1.73517024  -0.54853541   4.48690878
C    2.01228843  -1.76300457  -3.79317901
H    2.89354838  -2.32019225  -3.55271491
H    1.54438927  -2.19022747  -4.65541451
H    1.33361673  -1.79473561  -2.96656123
C    2.39413851  -0.30051763  -4.08800519
N    2.67844324   0.78837037  -4.30751669
C    1.62677261   3.56987694  -2.25898591
H    2.52664098   3.98817316  -2.65919257
H    0.80362972   4.21673482  -2.48014140
H    1.45375611   2.60959735  -2.69810719
C    1.76535993   3.41893575  -0.73267981
N    1.86854449   3.30655318   0.40372446
C   -0.99814259  -3.09837566  -1.54206867
H   -1.89576556  -3.57779508  -1.87271987
H   -0.15079554  -3.66752713  -1.86295598
H   -0.94520163  -2.11419580  -1.95858560
C   -1.00197828  -3.00570055  -0.00486452
N   -1.00483413  -2.93669972   1.13965385
C    2.46489877  -2.93921855   2.15978846
H    2.77705387  -3.94095931   2.36949020
H    1.47990215  -2.78395410   2.54782674
H    3.14228533  -2.25076228   2.62030394
C    2.45835729  -2.71178741   0.63668889
N    2.45348687  -2.54245459  -0.49732797
C   -3.32088613   0.09684032  -1.66891628
H   -4.28918037   0.45575450  -1.94907169
H   -3.20427937  -0.91286492  -2.00327729
H   -2.56896163   0.71071797  -2.11909722
C   -3.17730175   0.14996813  -0.13654525
N   -3.07039665   0.18952420   1.00437463
C   -1.79587126  -0.88787075   4.17043006
H   -2.02980497  -1.21752993   3.17972323
H   -2.63531901  -1.06011942   4.81117725
H   -0.95010076  -1.43134344   4.53677523
C   -1.46828104   0.61669845   4.14684709
N   -1.22437523   1.73691862   4.12928850
C   -4.42404038  -2.92920458   2.06591324
H   -3.51462506  -3.34878151   2.44250208
H   -5.25719945  -3.47667803   2.45452342
H   -4.49706932  -1.90569451   2.36921671
C   -4.42868530  -3.01046448   0.52806563
N   -4.43214366  -3.07096617  -0.61693181
C   -0.83624813   1.58430676  -4.55767147
H   -1.62399889   2.06883104  -5.09580264
H    0.09884604   1.78325049  -5.03821218
H   -0.80812066   1.95623274  -3.55478613
C   -1.08879550   0.06532566  -4.53495061
N   -1.27682850  -1.06562482  -4.51803390
C    4.09665594   0.59142169  -1.08900962
H    4.74879004   1.40196821  -1.33928078
H    3.10457855   0.81631793  -1.42082768
H    4.43875531  -0.30239707  -1.56750219
C    4.09355282   0.38758866   0.43743804
N    4.09124240   0.23582569   1.57394771
C   -1.70799632   3.56734133   1.33027478
H   -0.70158624   3.50673825   1.68855706
H   -2.29423954   2.79401816   1.78103996
H   -2.12022059   4.52147954   1.58442142
C   -1.71942774   3.39432567  -0.19993269
N   -1.72793895   3.26550764  -1.33924171
