72
Energy:   -317.50074871
C    3.43451479   0.48159018  -3.47719061
H    2.47267770   0.20160086  -3.85319004
H    4.17661473  -0.18511252  -3.86409405
H    3.65959840   1.48197173  -3.78292452
C    3.42681986   0.40431727  -1.93914975
N    3.42109064   0.34678408  -0.79400842
C    3.23683862   0.54337982   2.65578443
H    2.48677175   1.05269821   2.08754621
H    4.05063377   0.27679184   2.01424925
H    3.59204012   1.18575403   3.43429991
C    2.63389180  -0.73051143   3.27647453
N    2.18497049  -1.67898138   3.73860653
C   -3.20436631  -2.67506779  -2.45242619
H   -3.28737483  -1.79890375  -3.06098705
H   -3.97710927  -3.36675167  -2.71575262
H   -2.24906535  -3.13023167  -2.61093491
C   -3.34764339  -2.28548491  -0.96942354
N   -3.45431968  -1.99542274   0.13473934
C   -1.52969744   3.08903497  -3.96855399
H   -1.90046811   2.15145490  -4.32684565
H   -1.62333970   3.82701569  -4.73765390
H   -2.09512763   3.39247922  -3.11233593
C   -0.04749052   2.93957564  -3.57826617
N    1.05607990   2.82829639  -3.28767915
C   -0.28739453  -0.10786814  -1.66073201
H    0.72932927  -0.23408748  -1.35211967
H   -0.92114823  -0.72998034  -1.06388048
H   -0.57329909   0.91575008  -1.53678282
C   -0.42709659  -0.50407590  -3.14231992
N   -0.53111113  -0.79907058  -4.24542947
C    2.10104152  -2.66489125   0.31987413
H    2.00646737  -1.62397532   0.54889362
H    2.91465761  -2.80798147  -0.36016493
H    2.28791928  -3.21256438   1.21989077
C    0.79719201  -3.16885013  -0.32634713
N   -0.17358321  -3.54407043  -0.80748824
C   -1.61015573   2.89318798   3.34736228
H   -2.11972367   3.24128282   4.22147364
H   -1.95385754   1.91007062   3.10190674
H   -1.80990045   3.55509424   2.53073430
C   -0.09459938   2.85449542   3.61790214
N    1.03380122   2.82568705   3.81933137
C    0.92567769   0.16633736   6.35128364
H    1.52698021   0.86841845   5.81237956
H    1.37463753  -0.80339989   6.29702655
H    0.85434898   0.46958365   7.37493055
C   -0.48325748   0.11511407   5.73170486
N   -1.53227376   0.07697600   5.27040031
C   -1.24260627  -2.10159228   2.66782021
H   -1.41163770  -2.82342474   1.89627212
H   -2.16593820  -1.88727760   3.16423380
H   -0.54023686  -2.49233680   3.37414522
C   -0.68130551  -0.80876374   2.04722708
N   -0.26339158   0.15380588   1.58516730
C   -3.67082199   1.40314174   0.41538801
H   -4.38857660   0.73407008   0.84208655
H   -3.97460398   2.41342036   0.59414122
H   -2.71434668   1.23360847   0.86406667
C   -3.57718224   1.15605949  -1.10177446
N   -3.50746319   0.97209552  -2.23137088
C    0.58161996  -4.04530796  -4.30632344
H    0.94706586  -4.91535065  -4.81067965
H    0.09207425  -3.40456969  -5.00967155
H   -0.11317367  -4.33852951  -3.54725689
C    1.76021647  -3.29325981  -3.66061927
N    2.63773514  -2.73332578  -3.17986317
C    1.35435632   3.00499612   0.16132485
H    1.69495877   3.46168115   1.06704497
H    1.93057799   3.37243185  -0.66199688
H    1.46961806   1.94356112   0.23182004
C   -0.13107845   3.34655183  -0.05872801
N   -1.23705215   3.60085557  -0.22256736
