72
Energy:   -317.40757654
C    0.29496491   1.19699590  -0.77594321
H   -0.17273195   1.14355243  -1.73683011
H    1.31216561   0.87481768  -0.85596211
H    0.26731327   2.20618664  -0.42144565
C   -0.45611349   0.28512846   0.21197329
N   -1.01532551  -0.39379829   0.94752202
C    1.68205743  -0.47038369   3.30084106
H    0.63265029  -0.65349759   3.20027203
H    1.83679768   0.51681870   3.68344529
H    2.10574083  -1.18480095   3.97537753
C    2.35992280  -0.59944346   1.92409050
N    2.86462437  -0.69553432   0.89903712
C    3.26930057  -1.75069889  -2.54890639
H    3.77794418  -1.04055210  -3.16686544
H    3.55455077  -2.74146469  -2.83511357
H    3.53239461  -1.58554541  -1.52498991
C    1.74802549  -1.58451457  -2.72125751
N    0.61536705  -1.46078279  -2.84958076
C    0.52265694   1.75020970  -4.68706828
H    0.68816630   1.46930625  -5.70618558
H    0.14059427   2.74898322  -4.64993785
H   -0.18445477   1.08110672  -4.24300373
C    1.85204646   1.68002143  -3.91286086
N    2.84183738   1.62776307  -3.33642826
C   -0.15530483  -3.63028042  -0.07668123
H   -0.06027947  -2.65412331  -0.50445179
H   -1.17883365  -3.93950307  -0.11753712
H    0.44828716  -4.32126134  -0.62724565
C    0.31232564  -3.59567145   1.39019435
N    0.66049778  -3.56990349   2.48234989
C    4.22812953  -3.75512226   1.82256870
H    3.44852928  -3.73193426   2.55508898
H    4.67496244  -2.78587231   1.74645060
H    4.97059045  -4.46823078   2.11433421
C    3.63847595  -4.15714856   0.45791361
N    3.19945207  -4.45647541  -0.55813413
C   -4.24576105   0.80726061   0.56356802
H   -5.15415962   1.33115806   0.35086237
H   -4.30052156  -0.18109210   0.15729311
H   -3.42175686   1.32876640   0.12317286
C   -4.04548170   0.72515034   2.08827982
N   -3.89636462   0.66401552   3.22349706
C   -0.97447130   2.38816278   3.55676944
H   -0.00570140   2.76788039   3.80616791
H   -0.93489417   1.32049063   3.49838355
H   -1.67621763   2.67837178   4.31057970
C   -1.41574788   2.96062006   2.19692840
N   -1.74429836   3.38684053   1.18446494
C   -2.56846701  -2.46327956   3.33076602
H   -1.82578860  -1.69533808   3.27080909
H   -2.11655335  -3.37050883   3.67370653
H   -3.33489304  -2.16556384   4.01549632
C   -3.18470713  -2.69129777   1.93797895
N   -3.64352591  -2.86106769   0.90098567
C   -2.70528297  -1.67716074  -2.22612838
H   -2.12226436  -2.21388571  -2.94509694
H   -3.71396294  -2.03355849  -2.24721064
H   -2.29421870  -1.82750841  -1.24974688
C   -2.68427404  -0.17534074  -2.56626851
N   -2.66863193   0.94283252  -2.81951829
C    3.27967497   3.27098114  -0.30756903
H    2.55077231   3.66932804  -0.98204723
H    3.67704082   2.36182966  -0.70812246
H    4.07089358   3.97961345  -0.17829239
C    2.61807560   2.98625659   1.05361362
N    2.12548480   2.77426622   2.06707598
C   -2.50368021   4.27641130  -1.91017980
H   -2.76680668   5.09209466  -1.26961341
H   -2.79507049   3.35454159  -1.45176181
H   -3.00701121   4.38294927  -2.84837309
C   -0.98116754   4.27590521  -2.14159916
N    0.15241234   4.27552841  -2.31390139
