28
Energy:   -379.59747586
Na  -0.21135606  -0.55461423  -0.24537741
O   -1.97502734   0.33238928  -1.46618630
H   -2.22975707   0.19183051  -2.37810068
H   -2.59050143   0.99081096  -1.14384424
C    0.22098712   1.01430506   4.57235774
H   -0.34120554   1.91207590   4.72351037
H    1.26531997   1.24645108   4.55296145
H    0.02241100   0.33040914   5.37095212
C   -0.18713390   0.37236718   3.23334579
N   -0.49099855  -0.10558474   2.23639053
C   -1.57500199  -5.35013735   0.97708797
H   -2.62087449  -5.30014338   1.19743198
H   -1.04053318  -5.65730383   1.85166841
H   -1.40946789  -6.05719734   0.19123574
C   -1.07720742  -3.96236089   0.53225422
N   -0.70657674  -2.92909823   0.20105528
C    0.72396124   4.71436372   0.33215318
H    1.24250056   5.04421490  -0.54375512
H    1.37391043   4.78492799   1.17919854
H   -0.13644643   5.33042209   0.49048769
C    0.28055435   3.25139866   0.14581059
N   -0.04958224   2.16215467   0.00707006
C    2.51565134  -0.33347235  -4.54189156
H    3.38958164   0.27570227  -4.44163035
H    1.86392327   0.09553597  -5.27408107
H    2.80036688  -1.31757948  -4.85071078
C    1.78606740  -0.41130121  -3.18791595
N    1.24285900  -0.46924834  -2.17981957
