28
Energy:   -379.36388512
Na   0.33150037   0.10934757   0.78155202
O    0.13173558   0.78799931   3.06125271
H   -0.49245467   0.44792151   3.70231860
H    0.84634037   1.14543811   3.58832893
C   -0.52912932   2.00156629  -3.89891581
H    0.39118369   2.15103028  -4.42387740
H   -1.04377582   2.93528559  -3.80832694
H   -1.13964773   1.30878386  -4.43948854
C   -0.23429521   1.43967991  -2.49572070
N   -0.01477781   1.02132995  -1.45097815
C    5.30842543  -0.73292925   0.03910459
H    5.85318291  -0.66894646   0.95782418
H    5.77069484  -0.10553019  -0.69409149
H    5.30940327  -1.74562992  -0.30634511
C    3.85764954  -0.27046954   0.26927920
N    2.77748095   0.07385274   0.44065465
C   -1.25742155  -4.69872842   1.41568758
H   -1.65616479  -5.04693149   0.48581736
H   -2.02351675  -4.71948660   2.16239122
H   -0.44893875  -5.33180074   1.71647667
C   -0.74453491  -3.25654653   1.24639877
N   -0.36266749  -2.18277656   1.12035557
C   -3.74527288   2.75700927  -0.74027849
H   -3.09421724   3.29720765  -1.39542157
H   -4.26107811   3.44478095  -0.10324303
H   -4.45611559   2.20519808  -1.31916202
C   -2.91684875   1.78384425   0.11894400
N   -2.30004933   1.05927865   0.75867421
