28
Energy:   -381.54369050
Na  -0.45888855   0.59942027  -0.42929310
O   -1.35702072   2.81377040  -0.86301236
H   -0.71612217   3.49581221  -1.06376062
H   -2.14910848   3.08464958  -1.32718183
C    0.35909616   0.21227560  -5.53804100
H   -0.32958223  -0.52965005  -5.88469441
H    1.34088138  -0.01731590  -5.89620940
H    0.06188220   1.17313658  -5.90315623
C    0.36500735   0.22761255  -3.99812871
N    0.36940850   0.23903161  -2.85159402
C    1.33748689  -3.24167666   2.24748103
H    0.53358635  -3.51518933   2.89850707
H    2.18222018  -2.94028412   2.83099392
H    1.60505441  -4.08038755   1.63931102
C    0.89362025  -2.07468403   1.34597639
N    0.56314136  -1.20580497   0.67476521
C    3.57398372   1.99556569   2.02989573
H    4.20097287   2.80216411   1.71180175
H    4.10952784   1.07304176   1.94598387
H    3.28500521   2.14882461   3.04867059
C    2.31671566   1.94183339   1.14220780
N    1.38062243   1.90182725   0.48128379
C   -3.96772963  -1.78256819   2.46255285
H   -4.96035773  -1.90812693   2.08331067
H   -4.00566722  -1.25848505   3.39464550
H   -3.51858877  -2.74232100   2.61103224
C   -3.13091100  -0.97481739   1.45316035
N   -2.50786149  -0.37341021   0.70162175
