28
Energy:   -383.18908216
Na   0.28666334  -0.46347523  -0.76565504
O    0.12946483  -1.94494287  -2.53247764
H    0.66373916  -1.97465993  -3.32613984
H   -0.62032749  -2.50735892  -2.72672361
C   -3.11616675  -2.43997764   2.49752442
H   -3.23035338  -1.50859687   3.01171452
H   -2.95468771  -3.22270424   3.20897553
H   -4.00187358  -2.64725952   1.93409145
C   -1.90947456  -2.35559740   1.54443789
N   -1.01103738  -2.29277247   0.83482164
C    1.96616385   3.57755337  -3.24635622
H    1.72979286   3.47931191  -4.28528719
H    3.02638428   3.66023837  -3.12805607
H    1.49411688   4.45421604  -2.85452294
C    1.45983037   2.33820193  -2.48528170
N    1.08284209   1.41544845  -1.91862713
C   -3.50424148   2.32827853   1.24167986
H   -4.10370412   1.71307321   1.87969799
H   -4.08786698   2.64857301   0.40400939
H   -3.16439825   3.18354040   1.78751207
C   -2.29059703   1.52179051   0.74343874
N   -1.38698357   0.92132352   0.37247559
C    4.35557800  -1.40013505   2.00416266
H    4.67480810  -2.40610393   1.82804069
H    4.19656367  -1.25472066   3.05224099
H    5.10808675  -0.72172661   1.66008177
C    3.04193467  -1.13798045   1.24441523
N    2.06386749  -0.94279443   0.67874874
