28
Energy:   -380.99284277
Na   0.37393263   0.51844239   0.12759422
O    0.47111602   2.31557711  -1.23116393
H    0.99475237   3.11260969  -1.31347962
H    0.03648053   2.22532716  -2.07920803
C    4.36296087  -0.68681681   2.94320647
H    5.11225546   0.03436198   2.69149444
H    4.67488108  -1.65547381   2.61258812
H    4.22267653  -0.70003629   4.00388769
C    3.03750708  -0.31160634   2.25473763
N    2.05064648  -0.03224509   1.74214129
C   -2.41341275   2.21214465   3.97869461
H   -3.15752291   2.93533701   3.71755660
H   -1.68373290   2.66555362   4.61657132
H   -2.87539652   1.39389816   4.49049806
C   -1.72773141   1.69638063   2.69985585
N   -1.21721049   1.31237087   1.74770226
C   -3.95771138  -1.28319876  -1.73330246
H   -3.96540885  -1.80093030  -2.66967578
H   -4.56983290  -0.40846567  -1.80435424
H   -4.34050984  -1.92516649  -0.96763813
C   -2.51468919  -0.87305977  -1.38534708
N   -1.44029357  -0.56769264  -1.12627848
C    1.24931420  -2.40689874  -4.07635903
H    2.17861465  -2.66631157  -4.53896668
H    0.63337566  -1.88713179  -4.78017800
H    0.75024702  -3.29707112  -3.75476273
C    1.51659144  -1.50042966  -2.86043277
N    1.71559149  -0.82552223  -1.95512040
