28
Energy:   -378.56173138
Na   0.23315982  -1.15623764  -0.26640659
O    0.15592949  -3.50608138   0.63286042
H    0.68918153  -3.85828196   1.34548155
H   -0.57362910  -4.12053901   0.55274845
C   -3.96161645  -0.32337134   2.32586276
H   -4.38161846  -1.22687461   2.71596574
H   -4.69853910   0.19074217   1.74488823
H   -3.64567592   0.30149266   3.13495216
C   -2.75122583  -0.66227881   1.43608961
N   -1.85003499  -0.91461082   0.77361306
C    1.46666962   3.79132383  -0.96986833
H    0.76421333   4.41060070  -1.48750864
H    2.44876481   3.96515449  -1.35738741
H    1.44825539   4.02655222   0.07379235
C    1.09070072   2.31128617  -1.16920701
N    0.81077477   1.20933086  -1.31762371
C    2.12120173   1.53051919   3.72877363
H    3.18963955   1.56802465   3.68479454
H    1.81814401   1.05442056   4.63783094
H    1.72786235   2.52514552   3.69874543
C    1.58574028   0.73024567   2.52692367
N    1.18706488   0.13440566   1.63209175
C    0.17249896  -1.36723961  -5.32402046
H    0.21830071  -0.34371511  -5.63256538
H   -0.71634368  -1.81779916  -5.71370489
H    1.02935499  -1.89013651  -5.69452777
C    0.15261544  -1.43930031  -3.78583584
N    0.13781126  -1.49295277  -2.64058748
