28
Energy:   -381.22939927
Na   0.47425599   0.75766398  -0.66174652
O    1.19994301   2.93386762  -1.48328322
H    1.33840522   3.19136673  -2.39474045
H    1.84193687   3.44409453  -0.98957863
C   -4.07400323   1.83730040  -2.60828413
H   -4.63127504   0.99505355  -2.96179303
H   -3.96151221   2.54827197  -3.39996860
H   -4.59471696   2.29220449  -1.79169453
C   -2.68441037   1.37151604  -2.13533951
N   -1.64979532   1.02471840  -1.78321075
C    0.37043284   1.82790327   4.22102243
H    0.69716590   0.92599624   4.69505766
H   -0.62187534   2.06215620   4.54559772
H    1.03002862   2.62828270   4.48412936
C    0.37903864   1.63687765   2.69294025
N    0.38544605   1.49465039   1.55521360
C    3.02447818  -3.07004892  -2.41609816
H    2.31054321  -3.78482698  -2.76864514
H    3.49445351  -3.44261058  -1.52997171
H    3.76540658  -2.90431124  -3.17005784
C    2.30921336  -1.74362856  -2.09891481
N    1.77666620  -0.75604831  -1.86275740
C   -0.64978275  -3.43733957   2.58272904
H   -1.65318813  -3.40661386   2.95304479
H    0.03443578  -3.31131166   3.39566266
H   -0.47263171  -4.38099579   2.11046902
C   -0.44535699  -2.30478604   1.55943407
N   -0.29315272  -1.46154846   0.79754444
