28
Energy:   -381.38616191
Na   0.69855829   0.35661042  -0.64613214
O    2.62483892   0.65969925  -2.01128681
H    2.74615401   1.00447549  -2.89595841
H    3.50532288   0.64644856  -1.63604788
C   -1.61575208   1.68713101   3.51293751
H   -1.12340242   2.60565309   3.75544359
H   -1.28735440   0.91907066   4.18162082
H   -2.67399390   1.81390812   3.60754668
C   -1.27393693   1.28811364   2.06533690
N   -1.01944002   0.99102707   0.98753244
C   -3.81756157   2.49070610  -2.27981638
H   -3.86461896   3.27104196  -1.54922638
H   -4.56088080   1.75260117  -2.06169548
H   -3.99658714   2.90082001  -3.25175029
C   -2.42234462   1.83966655  -2.24639254
N   -1.38354218   1.35493801  -2.22150697
C    3.83797787  -0.90703272   3.19375097
H    4.14534901  -0.06045847   3.77144918
H    4.70099630  -1.40511595   2.80386461
H    3.28703921  -1.58179586   3.81508854
C    2.94643005  -0.43744389   2.02917859
N    2.28263217  -0.08781367   1.16210152
C   -0.94059969  -4.05777721  -2.24698048
H   -1.66302272  -3.75127426  -2.97434633
H   -1.40621622  -4.70331240  -1.53186883
H   -0.14394784  -4.58050339  -2.73380925
C   -0.37729299  -2.81748709  -1.52867278
N    0.04211446  -1.89403471  -0.99386004
