28
Energy:   -379.36637322
Na   0.02000560  -1.15539240  -0.44708421
O   -0.86678839  -1.44232886  -2.52256935
H   -1.09587080  -0.72271283  -3.11070698
H   -1.11951796  -2.23239191  -3.00023031
C    2.65769649   3.06753096  -0.31246836
H    3.59773887   3.15812593  -0.81547239
H    2.80307446   3.19175368   0.74030562
H    1.98721754   3.82030132  -0.67120763
C    2.06048999   1.67492501  -0.58741025
N    1.61584260   0.63806657  -0.79211699
C   -3.29086126   3.19810191  -1.50268568
H   -4.04680616   3.24455713  -0.74684880
H   -3.75109101   3.06870351  -2.45994413
H   -2.72593976   4.10680695  -1.49845026
C   -2.35354188   2.00961998  -1.21888455
N   -1.65566499   1.12474116  -1.00758171
C   -1.67391471   0.84248525   3.78347639
H   -1.05602583   1.62983836   4.16187907
H   -1.88941384   0.14915687   4.56945030
H   -2.58832313   1.25453849   3.41069166
C   -0.93698926   0.11410997   2.64417382
N   -0.38831476  -0.42819853   1.79591128
C    2.86083925  -5.23854766   0.54007997
H    2.98518663  -5.91801512  -0.27708702
H    2.29811965  -5.71350292   1.31639385
H    3.82108216  -4.95538140   0.91776968
C    2.10973424  -3.98458743   0.05528619
N    1.55050242  -3.05095704  -0.30566481
