28
Energy:   -380.66195871
Na   0.33625897  -0.15988406   0.19098971
O    1.28705836  -2.46345246   0.92259547
H    1.96410848  -3.04104344   1.27504922
H    0.50818954  -3.01642488   0.86081599
C   -2.54662034   1.95835397   3.75243221
H   -2.78895990   1.30558556   4.56487613
H   -3.44642662   2.26855240   3.26353070
H   -2.02987163   2.81721651   4.12689848
C   -1.64651439   1.21527730   2.74781969
N   -0.97634459   0.66202293   1.99984000
C   -2.93381031  -3.48881147  -1.86141694
H   -3.86635617  -2.97353176  -1.96013482
H   -3.07256838  -4.36632113  -1.26507637
H   -2.57674938  -3.76888516  -2.83041916
C   -1.90583247  -2.56437270  -1.18298157
N   -1.14045625  -1.87608602  -0.67785561
C   -0.90609295   3.80348205  -2.70769785
H    0.02073580   4.32270664  -2.83534763
H   -1.58860198   4.42093758  -2.16196057
H   -1.32138923   3.57400967  -3.66674452
C   -0.66001407   2.49777873  -1.92911964
N   -0.47679717   1.52562325  -1.34943277
C    5.24876049  -0.17021382  -0.02044940
H    5.45898073  -0.77699730  -0.87632407
H    5.40374132  -0.74325192   0.86977942
H    5.90031541   0.67852499  -0.01623913
C    3.78538936   0.30629874  -0.07595348
N    2.69584303   0.66108400  -0.11727878
