28
Energy:   -380.87823886
Na   0.46034091   0.07007422  -0.46722946
O    2.23088179   1.10660003  -1.74669297
H    2.60286646   0.61686800  -2.48019267
H    2.64207593   1.96927392  -1.80096070
C    1.13122823  -0.29220663   4.66465285
H    1.37179248  -1.19206638   5.19122807
H    0.15814893   0.04301115   4.95730419
H    1.85349743   0.46181616   4.89848168
C    1.14597461  -0.56477393   3.14903759
N    1.15695396  -0.76771267   2.02059314
C   -2.68741319   1.63858830  -4.23504807
H   -2.16482579   1.62922079  -5.16870478
H   -2.99771788   2.63757018  -4.01000300
H   -3.54675209   1.00447781  -4.30092401
C   -1.75613431   1.12692754  -3.12036295
N   -1.06275486   0.74597284  -2.29042921
C   -3.21042397   2.46077484   2.20522782
H   -4.06159144   2.56468070   1.56521400
H   -2.83917550   3.43006015   2.46515023
H   -3.49441962   1.93742490   3.09424436
C   -2.11095598   1.66941311   1.47275479
N   -1.29235208   1.08020833   0.92739533
C    2.55126288  -4.57600874  -0.82328418
H    3.28486260  -4.61385422  -0.04527432
H    3.00475146  -4.84457370  -1.75447700
H    1.76007948  -5.26126204  -0.60112243
C    1.98145475  -3.14875174  -0.92256228
N    1.55720670  -2.08609402  -0.99647934
