28
Energy:   -381.62501790
Na  -0.09944264  -0.11380203  -0.89842063
O    0.79425999  -0.31379262  -3.03158731
H    0.67341145   0.34197706  -3.71831405
H    1.11143707  -1.08967304  -3.49379952
C   -4.45254461  -1.89518559  -2.95821597
H   -4.47541513  -2.96223914  -2.88223016
H   -4.49694256  -1.60995205  -3.98854103
H   -5.29119827  -1.48247196  -2.43742177
C   -3.14869166  -1.36394737  -2.33423405
N   -2.17791387  -0.96841638  -1.86965115
C   -0.01422160  -0.10381080   4.13452610
H    0.97365431  -0.45901937   4.34147593
H   -0.72493653  -0.86757560   4.37211128
H   -0.21242787   0.76468361   4.72725775
C   -0.12785759   0.25669229   2.64163481
N   -0.21246474   0.52510323   1.53010939
C    3.05322245  -2.49306373   2.29676245
H    3.39065343  -1.61333977   2.80383865
H    3.89768983  -3.07609623   1.99369966
H    2.43877583  -3.07075769   2.95526387
C    2.23651471  -2.08862946   1.05538362
N    1.62843867  -1.78750977   0.13112066
C    0.85046308   4.78011245  -0.18315809
H   -0.05668886   5.31029318   0.01903966
H    1.41954040   5.31338536  -0.91573581
H    1.42113029   4.69312716   0.71777009
C    0.51570304   3.37472548  -0.71647148
N    0.26645898   2.32835099  -1.11354754
