28
Energy:   -381.77527652
Na  -0.33907940  -0.46901838   0.51887619
O   -2.34553783  -0.95914632   1.48282089
H   -2.99491772  -1.58665387   1.16537501
H   -2.71232024  -0.62827388   2.30271475
C    2.92953504   0.94267959   4.25997965
H    2.38946324   1.48293753   5.00920858
H    3.57020345   1.61454042   3.72795889
H    3.51929069   0.18067137   4.72520094
C    1.93594208   0.29485570   3.27778963
N    1.19616695  -0.18747863   2.54650452
C    1.65158745  -5.16582168  -0.80644049
H    0.82839900  -5.82294579  -0.99471916
H    2.19522569  -5.51092624   0.04811167
H    2.29845111  -5.15121949  -1.65864544
C    1.12292973  -3.74437532  -0.53883772
N    0.72932003  -2.68604389  -0.33959528
C   -2.69287384   1.10541537  -3.76721594
H   -2.36039150   2.11794828  -3.86278156
H   -3.75664675   1.08857528  -3.65318658
H   -2.41937396   0.55597254  -4.64369155
C   -2.03399628   0.46314784  -2.53231807
N   -1.54343198  -0.01504954  -1.61288046
C    0.21714374   4.28474169  -1.32421737
H    0.38535271   5.13173276  -0.69238508
H   -0.72911602   4.38683010  -1.81316473
H    0.99356357   4.22753742  -2.05824667
C    0.21949110   3.00110580  -0.47340987
N    0.22123882   2.04538053   0.16005498
