28
Energy:   -386.35721965
Na   0.73799640   0.65223270  -0.40676777
O   -1.29615715   1.70301263  -0.29056930
H   -1.69750262   2.54975636  -0.48596307
H   -2.02306930   1.15576164   0.00666284
C    3.32292258   0.89569383   3.93191077
H    2.74386380   1.44273045   4.64629305
H    4.25597576   1.39445616   3.77207650
H    3.50507640  -0.09178721   4.30150550
C    2.55126856   0.81175947   2.60183367
N    1.97673706   0.74926653   1.61153081
C    4.32777504   2.17850555  -3.62452891
H    5.08336484   1.42142159  -3.65295640
H    4.75653018   3.09770217  -3.28372736
H    3.92328169   2.31573179  -4.60557589
C    3.20536974   1.74768054  -2.66213807
N    2.36968797   1.42691173  -1.94559434
C   -1.01863230  -3.97909628  -1.38944810
H   -1.36222655  -4.01140572  -2.40226559
H   -1.84192826  -4.15056725  -0.72787379
H   -0.27732351  -4.73607721  -1.23998156
C   -0.40611210  -2.59631568  -1.09904005
N    0.04993704  -1.56677268  -0.88281806
C   -5.70647321  -0.85551438   1.53362599
H   -6.48550822  -0.25255423   1.11596141
H   -5.72125076  -0.76886829   2.60000921
H   -5.85926957  -1.87769698   1.25668720
C   -4.34406158  -0.37685217   0.99853998
N   -3.32968419  -0.02046640   0.60014412
