28
Energy:   -381.57777150
Na  -0.55218789   0.54416985  -0.10055088
O   -1.80439763   2.53145753  -0.55205263
H   -2.25200823   3.03407370   0.12857471
H   -2.18680386   2.84413805  -1.37194788
C   -2.05272041  -0.91568337   4.55702471
H   -2.33638178  -0.00642619   5.04455705
H   -1.12247939  -1.26023179   4.95806975
H   -2.80710621  -1.65718032   4.71821847
C   -1.89755985  -0.66124008   3.04613629
N   -1.78203577  -0.47179548   1.92121118
C   -2.39965306  -2.85630497  -3.64017266
H   -3.44604605  -3.04721237  -3.52391326
H   -1.85565748  -3.77089175  -3.52837405
H   -2.21723864  -2.44942926  -4.61283716
C   -1.93911592  -1.85081483  -2.56849402
N   -1.59622508  -1.10218171  -1.77058056
C    2.96486012   0.81789184  -3.62098812
H    3.74090140   0.10886423  -3.42113828
H    3.38823901   1.79743234  -3.69940884
H    2.47858864   0.56489655  -4.53991822
C    1.93845729   0.79267953  -2.47318084
N    1.17425372   0.77390781  -1.61858614
C    3.47149125   0.67732348   3.21468488
H    3.20199874   0.26742486   4.16560921
H    3.65504003   1.72642739   3.31759226
H    4.35604516   0.19400628   2.85570306
C    2.32208751   0.45296079   2.21461866
N    1.46630419   0.28591256   1.47002390
