28
Energy:   -379.47969845
Na   0.44145073   0.65202420   0.43591541
O    1.25557547   2.71178135  -0.38305451
H    2.04650608   3.25036540  -0.40729985
H    0.60019030   3.22652252  -0.85395116
C    1.14527240   0.05625425   5.38217380
H    0.32923216  -0.54388939   5.72685643
H    1.06215645   1.04090269   5.79261049
H    2.06890889  -0.38389525   5.69532417
C    1.11003903   0.13634114   3.84466130
N    1.08380618   0.19596948   2.69991335
C   -2.00672730  -2.48178754  -3.10617043
H   -2.14727871  -1.85124223  -3.95914059
H   -2.91103996  -3.01745465  -2.90572476
H   -1.21678326  -3.17633739  -3.30235403
C   -1.63983239  -1.61870713  -1.88466303
N   -1.36666245  -0.97610453  -0.97519525
C    3.96699345  -2.25119018  -1.98144538
H    3.52672446  -2.99021364  -2.61776897
H    4.56454512  -2.73276153  -1.23584487
H    4.58234675  -1.59882729  -2.56510802
C    2.85497322  -1.43335951  -1.29868333
N    2.02702362  -0.82444740  -0.79033595
C   -4.27752084   1.95282045  -0.29977790
H   -4.56676533   0.94677027  -0.52136498
H   -4.38878370   2.55709116  -1.17577823
H   -4.89893717   2.33883291   0.48107754
C   -2.80671207   1.97551320   0.15608017
N   -1.71162808   1.99240898   0.49548723
