28
Energy:   -387.80246869
Na  -0.67595361  -0.80850837  -0.51295138
O   -1.01510318  -0.09188202   1.63909071
H   -0.40708197   0.57194368   1.96447895
H   -1.61010770  -0.25199795   2.37159624
C    0.52460088  -5.65960387  -1.27393805
H   -0.36237526  -6.25692952  -1.31102676
H    1.15235744  -6.00227859  -0.47807699
H    1.04926227  -5.74209979  -2.20282122
C    0.14256242  -4.18797093  -1.02910522
N   -0.14188258  -3.09227332  -0.84681604
C   -4.29185279   0.05897269  -3.93732129
H   -4.74909305   1.00665154  -3.74306291
H   -5.03367246  -0.71082995  -3.89252672
H   -3.84771349   0.07009055  -4.91072551
C   -3.20532945  -0.21303797  -2.88040254
N   -2.39636345  -0.41556228  -2.09347849
C    3.12127171   2.43215458  -0.42307097
H    3.03750006   2.82383439   0.56913336
H    3.01792237   3.22811985  -1.13064237
H    4.07834948   1.96930134  -0.54418300
C    2.01310756   1.38899428  -0.65841921
N    1.18802898   0.61231402  -0.83364668
C    1.75670799   3.54400705   4.43113618
H    1.71114498   4.54947297   4.06800745
H    2.77219478   3.29092690   4.65392780
H    1.16482053   3.45805393   5.31836805
C    1.21261731   2.58484050   3.35616415
N    0.80751707   1.87069741   2.55579861
