28
Energy:   -387.27689052
Na  -0.73250943  -0.09641759  -0.20465790
O   -2.89899943  -0.57321561   0.50128041
H   -2.96869595  -0.49407972   1.45265403
H   -3.77305848  -0.35522203   0.17765808
C   -0.88667129   0.78634094  -5.21948556
H   -1.39582533   1.68576167  -5.49644167
H   -1.34949112  -0.04872193  -5.70256620
H    0.13816910   0.84949047  -5.52050618
C   -0.96275968   0.60282528  -3.69235342
N   -1.01941094   0.46618954  -2.55533413
C    2.65666432   3.41622242   0.88519710
H    3.01167121   3.15217310   1.85943950
H    2.17073616   4.36852759   0.92864547
H    3.48232362   3.46774287   0.20657242
C    1.65675914   2.35149563   0.39719454
N    0.91228427   1.55875815   0.03385446
C   -0.37685356   0.80662919   5.12802182
H    0.13215875  -0.00369156   5.60675654
H   -1.32521010   0.96019915   5.59912184
H    0.21129323   1.69655127   5.21181402
C   -0.59101838   0.47103624   3.64036904
N   -0.75047383   0.22117203   2.53274392
C    1.52996486  -4.58113297  -1.14126414
H    2.52537594  -4.38464785  -1.48104429
H    1.00523550  -5.14692904  -1.88250162
H    1.56809959  -5.13796330  -0.22836502
C    0.79764819  -3.24817947  -0.89929873
N    0.25240515  -2.25573499  -0.71914448
