28
Energy:   -385.35296205
Na  -0.74702813  -0.38620100   0.29568222
O   -2.29947679  -1.93410362   1.03987317
H   -2.84920025  -1.83943526   1.81773811
H   -2.69616748  -2.65583529   0.55204969
C   -2.39310761   4.34081081   1.17817713
H   -3.19890614   4.75734206   0.61064685
H   -1.48798125   4.86346121   0.94908779
H   -2.60561398   4.43639036   2.22249733
C   -2.23021480   2.85152554   0.82167281
N   -2.10893370   1.74268497   0.55623914
C    2.76182134   1.91980966   2.90071861
H    2.57868375   1.52600884   3.87861519
H    2.84906301   2.98482937   2.95568222
H    3.67022891   1.50700274   2.51434415
C    1.59240987   1.54788892   1.97026078
N    0.72172987   1.27097703   1.27749263
C    3.01647299  -3.88877241  -0.14723367
H    3.89141853  -3.62796555   0.41075402
H    3.26816340  -3.97999838  -1.18320127
H    2.63063572  -4.82085535   0.20948760
C    1.95027479  -2.79133747   0.02728839
N    1.15644176  -1.97424728   0.15722801
C   -0.81569937  -0.66525163  -4.87349935
H   -1.07809213   0.28433103  -5.29104335
H   -1.49629561  -1.41100811  -5.22780871
H    0.18013136  -0.92192523  -5.16903094
C   -0.89175207  -0.58919073  -3.33726020
N   -0.94837676  -0.53255993  -2.19346032
