28
Energy:   -380.54678713
Na  -0.50282778   0.30722389  -0.37563680
O   -0.07060906   1.88576465  -2.01622340
H    0.73180800   2.40764243  -2.01470417
H   -0.56656671   2.21034446  -2.76782556
C   -1.29883336  -3.77451415  -3.35571956
H   -0.46586885  -4.01319689  -3.98349408
H   -2.18224507  -3.68731770  -3.95311358
H   -1.43332065  -4.55038185  -2.63126005
C   -1.03266547  -2.43981527  -2.63507154
N   -0.83449138  -1.44607129  -2.09851633
C   -5.22554887   1.87271459   1.26292565
H   -5.22791474   2.88231065   1.61734121
H   -5.58000337   1.22269744   2.03541435
H   -5.86482580   1.79312156   0.40859021
C   -3.79191080   1.46974352   0.87062959
N   -2.72450209   1.16971323   0.57854734
C    4.11396348   2.32405187   1.46800324
H    4.04535258   3.34213167   1.79003780
H    4.91491349   2.22541701   0.76540141
H    4.30103007   1.69458131   2.31279434
C    2.79070421   1.90670480   0.79986678
N    1.80547754   1.59597094   0.30240881
C    2.74532989  -2.24903987   2.58992008
H    2.69150909  -1.79663202   3.55807845
H    3.68601520  -2.01320212   2.13782406
H    2.65224036  -3.31058827   2.68660729
C    1.60288529  -1.71176193   1.70801717
N    0.75228335  -1.31173408   1.05140037
