28
Energy:   -382.77113565
Na   0.15171779   0.97601678  -0.70962231
O    0.30384606   2.69647605  -2.18203809
H    0.10392323   2.51704383  -3.10076917
H    0.65284236   3.58778600  -2.18202318
C   -4.35342201   1.62480920   1.75973036
H   -4.62649511   0.70225413   2.22794335
H   -5.09675308   1.89223044   1.03803522
H   -4.28275841   2.39357443   2.50061211
C   -2.99226011   1.46126462   1.05823805
N   -1.97881321   1.33949825   0.53594514
C   -1.92843475  -2.93576614  -3.13161357
H   -1.70064906  -2.84640444  -4.17326051
H   -2.98379091  -3.06035118  -3.00670947
H   -1.41864797  -3.78487303  -2.72660241
C   -1.47106296  -1.66298944  -2.39510117
N   -1.13052888  -0.71534933  -1.84673421
C    4.33243858  -2.00558261  -0.26523541
H    4.42127537  -2.98576248  -0.68506350
H    4.28301415  -2.07748421   0.80120094
H    5.18319713  -1.41965613  -0.54416039
C    3.05125562  -1.33466668  -0.79442540
N    2.09735668  -0.83513928  -1.18843141
C    1.54936589   0.58857535   4.07561652
H    1.23774588   1.51883336   4.50271508
H    2.56568724   0.39383125   4.34776491
H    0.92478898  -0.19914497   4.44208544
C    1.43404641   0.66371367   2.54177962
N    1.34818581   0.71965757   1.39976832
