28
Energy:   -382.92486980
Na  -0.19391492  -0.42782504   0.40797649
O   -1.34437641   0.85850834   2.27969225
H   -1.37539815   1.79017252   2.49711202
H   -2.07571094   0.47468863   2.76349393
C    1.13441817  -1.07250853  -4.49435763
H    0.32869427  -0.55523399  -4.97199370
H    1.13072327  -2.09800365  -4.79971837
H    2.06341259  -0.62069207  -4.77315926
C    0.96231838  -0.99132861  -2.96615886
N    0.83418226  -0.93088647  -1.82834541
C    2.74378920  -3.01927207   3.58385554
H    3.02780200  -2.31770744   4.34019144
H    3.61450576  -3.34385464   3.05338602
H    2.26894222  -3.86271666   4.03994836
C    1.76526505  -2.34791350   2.60234234
N    1.03670934  -1.84805654   1.87156114
C   -5.03049109   0.08520325  -0.40373990
H   -5.17338104   0.88571856   0.29171526
H   -5.64586272  -0.74427915  -0.12414058
H   -5.29941428   0.41373097  -1.38590534
C   -3.55211022  -0.34594087  -0.39350544
N   -2.45138846  -0.66694727  -0.38588542
C    2.40695610   3.70577315  -0.73462692
H    1.77244774   4.53847688  -0.95576898
H    2.98377630   3.45696188  -1.60080849
H    3.06410976   3.96189727   0.07001498
C    1.54417237   2.49677504  -0.32777583
N    0.90179067   1.59662099  -0.02485670
