28
Energy:   -386.32282305
Na   0.58183574   0.08751968  -0.84714121
O   -1.07736733   1.63546053  -1.12630948
H   -1.69076739   1.69632338  -0.39400632
H   -1.39617344   2.27772074  -1.76042014
C    5.14243146   1.26174453  -2.69473268
H    5.39666747   0.58225212  -3.48121490
H    5.86775467   1.18825356  -1.91153129
H    5.13016135   2.26110471  -3.07686849
C    3.75025576   0.90714550  -2.14001982
N    2.71371768   0.64313041  -1.72701088
C    0.83415460  -0.75223040   4.13313608
H    0.30820558  -1.65664563   4.35743700
H    0.36597519   0.06709361   4.63753206
H    1.84918249  -0.83940478   4.46027228
C    0.80407493  -0.50429626   2.61352302
N    0.78167925  -0.31969803   1.48210201
C   -4.78364563   2.39841084   2.75522598
H   -4.97575495   1.60079995   3.44211102
H   -5.66691618   2.59908177   2.18560909
H   -4.50211568   3.27649833   3.29799880
C   -3.64109314   1.99376784   1.80525869
N   -2.79041089   1.69249273   1.09796486
C   -0.41202114  -4.44009026  -2.87503220
H   -1.43204103  -4.45438713  -3.19791793
H   -0.25981205  -5.20277301  -2.14015363
H    0.22970373  -4.61851786  -3.71244002
C   -0.08662584  -3.06501561  -2.26275152
N    0.15564575  -2.04121004  -1.80688073
