28
Energy:   -383.57116298
Na   0.48466013   0.53656426  -0.10123660
O    1.55585526   2.12808465  -1.45076312
H    2.47477799   2.25912443  -1.68451823
H    1.09778378   2.86441195  -1.85600930
C    2.51276248  -4.14733635  -0.64979926
H    2.30228283  -4.64731911   0.27248905
H    3.57178989  -4.09423867  -0.79311941
H    2.07012635  -4.69001165  -1.45879609
C    1.92855211  -2.72310661  -0.60658037
N    1.49358093  -1.66270282  -0.57440194
C   -3.93456316   2.65272240   0.06907051
H   -4.44340224   1.84175616  -0.40875449
H   -4.07301837   3.54679232  -0.50221596
H   -4.33166074   2.79290286   1.05271783
C   -2.43141693   2.33135958   0.16329013
N   -1.31225623   2.09209035   0.23344092
C   -2.25736673  -3.00334784  -2.55951095
H   -3.31501909  -3.15374641  -2.49907975
H   -1.75456843  -3.79425726  -2.04322106
H   -1.95577618  -2.99924550  -3.58611964
C   -1.89285593  -1.65446987  -1.91200795
N   -1.62146108  -0.65016892  -1.42991254
C    2.18505382   2.20433946   4.43264826
H    3.01465362   1.65809486   4.83049396
H    1.37048501   2.17060388   5.12564080
H    2.47305634   3.22193612   4.27001163
C    1.74891134   1.57449773   3.09672943
N    1.42418344   1.10555193   2.10207713
