28
Energy:   -381.30244277
Na  -0.79811698   0.26074832  -0.02545354
O   -1.83478815   2.29361712  -0.69320282
H   -1.63515232   2.77594625  -1.49553442
H   -2.19977265   2.95196483  -0.10193600
C   -3.10340567  -4.00266846  -0.31479920
H   -2.25358868  -4.65169351  -0.35324068
H   -3.72977998  -4.18457647  -1.16301131
H   -3.65503420  -4.19010297   0.58268248
C   -2.63106252  -2.53697781  -0.33038355
N   -2.27938158  -1.44570450  -0.34198681
C    3.97671528   1.33711944   0.30058249
H    4.65845333   0.75339724   0.88316450
H    4.01100679   2.35582999   0.62608516
H    4.25282851   1.28306089  -0.73176350
C    2.54876877   0.78886429   0.47942620
N    1.48559769   0.38066342   0.61258347
C    2.12716842   0.15623338  -4.40560985
H    1.69797343   0.38869121  -5.35779429
H    2.48173741  -0.85329616  -4.41109003
H    2.94352537   0.81992872  -4.21075368
C    1.05962844   0.31941089  -3.30773395
N    0.26479639   0.44090397  -2.49031545
C   -0.84971128   0.40400870   5.01367147
H   -1.79168837   0.58046494   5.48953124
H   -0.19436638   1.22830581   5.20329324
H   -0.41600117  -0.49334150   5.40297502
C   -1.06139389   0.25518517   3.49556672
N   -1.21900122   0.14437929   2.36526873
