28
Energy:   -386.44717189
Na   0.00054025  -0.99987532  -0.26818992
O    1.62997389  -0.86298541   1.33217509
H    2.32194975  -1.38267740   1.74122459
H    1.73737306   0.01325942   1.70216465
C   -3.21844371  -4.87110504   0.21609382
H   -2.76837966  -5.66804814   0.77037193
H   -3.49620893  -5.22445104  -0.75493254
H   -4.08944235  -4.52506306   0.73234513
C   -2.21283650  -3.71358832   0.07288352
N   -1.46411622  -2.85176451  -0.03374305
C    2.90576080   3.93603802   3.45618127
H    3.26079642   4.62476992   2.71828002
H    3.72051053   3.62744735   4.07735256
H    2.15890325   4.41105992   4.05739429
C    2.29705984   2.70524020   2.75888661
N    1.84385430   1.78885527   2.23971904
C    1.23583192  -1.33594958  -5.16197513
H    0.41990436  -1.77641061  -5.69597556
H    2.10612968  -1.94868708  -5.27167316
H    1.43436744  -0.36076044  -5.55502587
C    0.87183612  -1.22367416  -3.66982859
N    0.60082469  -1.14008001  -2.55885767
C   -2.41225231   3.39392738   0.35457236
H   -1.68254766   4.14453810   0.57596535
H   -3.09453411   3.30701657   1.17422909
H   -2.94949616   3.66842318  -0.52912453
C   -1.70727496   2.04362449   0.12810152
N   -1.18238727   1.03826261  -0.04051631
