28
Energy:   -378.92545147
Na   0.36272040   0.92143156   0.71688533
O    2.42357431   1.17599208   1.71584275
H    3.28758759   1.42480309   1.38750454
H    2.58869419   0.84375647   2.59821839
C   -2.47526372  -2.97512209   0.58632564
H   -2.47818864  -3.54616901   1.49119969
H   -1.84781846  -3.45437265  -0.13584500
H   -3.47229491  -2.90778901   0.20384145
C   -1.93912562  -1.56038562   0.87386115
N   -1.53994644  -0.50705001   1.08794440
C   -2.06551218   5.06800021   2.07872699
H   -2.23783214   5.09566125   3.13439781
H   -3.00114669   5.12683738   1.56295054
H   -1.44971458   5.89611817   1.79603800
C   -1.35717291   3.75163431   1.70854285
N   -0.82978214   2.77154006   1.43292393
C   -0.53082030   0.13777133  -4.06429428
H   -1.45887284  -0.39287254  -4.01917506
H    0.24804036  -0.53087682  -4.36626253
H   -0.61033299   0.93579563  -4.77262615
C   -0.20165608   0.71529791  -2.67515283
N    0.04342164   1.14529270  -1.64087388
C    2.96153444  -3.79085144  -0.56454676
H    2.34262393  -4.53500222  -1.02071514
H    3.45091413  -4.20898137   0.29018944
H    3.69547857  -3.45718699  -1.26803318
C    2.09162953  -2.59826132  -0.12569114
N    1.44394578  -1.71032377   0.20105682
