28
Energy:   -378.89973536
Na  -0.39330954   0.63664373  -0.95261757
O   -0.53603954   1.91808789  -3.01198764
H   -0.85581124   1.34635066  -3.70990916
H   -0.21269469   2.69528264  -3.46767205
C   -2.40733763   0.00142352   3.62358369
H   -1.90374087   0.78225396   4.15423829
H   -2.08902049  -0.94832249   3.99982272
H   -3.46398256   0.10251882   3.75841819
C   -2.06949985   0.09903419   2.12427125
N   -1.81796427   0.17170977   1.00796499
C    1.68252923   4.84173278   0.83010725
H    1.87246779   5.37752128  -0.07639934
H    2.55549652   4.86600901   1.44836112
H    0.86515766   5.29723873   1.34906499
C    1.32914277   3.38006756   0.49806388
N    1.06603049   2.29179136   0.25084250
C    2.99068421  -2.75484439   1.16799967
H    3.80014443  -2.06823013   1.30303741
H    3.27960769  -3.51438203   0.47192144
H    2.74530469  -3.20599791   2.10669476
C    1.76299367  -2.00056409   0.62445837
N    0.84892225  -1.43896812   0.21976716
C   -1.46296852  -3.82766364  -2.43372986
H   -2.43197058  -4.09933243  -2.79722849
H   -1.33379887  -4.20971116  -1.44264258
H   -0.71273053  -4.24009261  -3.07555880
C   -1.33401931  -2.29320867  -2.41323443
N   -1.23801076  -1.15073720  -2.39797466
