61
Energy:  -1085.49860276
O   -2.29825056  -0.98185720   1.69788246
H   -3.07852825  -0.76585422   1.18725414
H   -2.29317503  -0.34267419   2.41037890
O   -1.53284028   2.18859045   1.09196415
H   -2.26142371   2.29356924   0.48010020
H   -1.00244623   2.97616291   0.97095334
O   -0.86155107   1.75811864  -2.01646118
H   -0.04311312   2.23653542  -1.88414125
H   -0.72822055   1.27550326  -2.83226583
O   -2.22614494  -1.17582164  -1.90956893
H   -3.02744421  -1.00878952  -1.41333149
H   -1.87679746  -1.98493091  -1.53603129
O    3.35246684  -2.48206637   0.56573239
H    3.97521293  -2.89211060   1.16596809
H    2.61226886  -2.23472093   1.11995169
O   -0.64942967  -2.93382219  -0.56532719
H    0.18353294  -3.27880970  -0.88686841
H   -0.75805562  -3.33422274   0.29729187
O    1.89617562  -3.38120798  -1.56034485
H    2.49547817  -3.16814613  -0.84503166
H    2.30522331  -4.12504336  -2.00263522
O   -1.82389382   1.04643294   3.52043508
H   -2.38837820   1.53911921   4.11612750
H   -1.75548538   1.59950790   2.74219333
O    1.64518608   1.36208814   1.16542124
H    2.51342052   0.99133327   1.00749203
H    1.49841259   1.23850346   2.10319318
O   -0.09666646   4.41819685   0.44183397
H    0.17496475   5.31451657   0.63946824
H    0.53755192   4.11272171  -0.20676747
O   -4.19941276  -0.26562477  -0.18953355
H   -4.04801886   0.63577264  -0.47377717
H   -5.14635885  -0.38455529  -0.26288529
O    1.53055847   2.80532686  -1.13811639
H    2.27513916   2.46139711  -1.63161793
H    1.62654617   2.42696549  -0.26412504
O   -3.34486889   2.22856743  -0.96642141
H   -3.72988396   3.04845237  -1.27591119
H   -2.53863464   2.13542583  -1.47390819
O    1.38227751  -0.74701121  -2.19993496
H    0.77389603  -0.67931306  -2.93581591
H    1.57852343  -1.68169402  -2.13600196
O   -0.67560373  -0.23505851  -3.94726411
H   -1.34851122  -0.62909631  -3.39214109
H   -0.98812820  -0.37716223  -4.84077787
O    0.85453895   0.41841997   3.67275464
H   -0.07063733   0.64743349   3.76126179
H    1.23091263   0.60329629   4.53321699
O    3.43342621   1.06002623  -2.21848850
H    2.75839587   0.38971738  -2.32456368
H    3.96679390   0.99090652  -3.01030491
O    1.10120384  -1.68246638   1.88664340
H    0.45214666  -2.34284501   2.12924738
H    1.08741560  -1.05541905   2.60972941
O    3.93957015   0.22115705   0.38473727
H    3.97379599   0.50215867  -0.52964697
H    3.87579130  -0.73288542   0.34038545
O   -1.05046059  -3.38045525   2.14318606
H   -1.64783922  -2.63385945   2.09885389
H   -1.49683336  -4.01179310   2.70745170
K   -0.28117132  -0.14494776  -0.04982994
