61
Energy:  -1090.10006003
O   -1.48308723  -0.30557663   2.48469433
H   -2.07811951  -0.19718573   1.74279148
H   -1.49960578   0.54091712   2.93124478
O   -2.06921376   3.45039550   0.99611800
H   -2.63211686   3.15933175   0.27872421
H   -1.28909808   3.79741193   0.56341607
O   -1.81179413   1.88713004  -3.26979501
H   -1.88852319   2.19209098  -4.17386543
H   -1.82409373   0.93235217  -3.33672615
O   -2.97116127  -2.30476170  -1.34777574
H   -2.24108664  -2.64948587  -0.83358887
H   -3.59867632  -3.02648599  -1.38740868
O    3.50721653  -2.79715549   0.33451891
H    4.26061968  -3.21504058   0.75163712
H    2.92337699  -2.57585219   1.06004498
O   -0.74736195  -2.84045053   0.17506748
H   -0.02780969  -3.33927434  -0.21178029
H   -0.72984122  -3.07435656   1.10308301
O    1.48806378  -3.83807124  -1.18040486
H    2.27782425  -3.60046211  -0.69455288
H    1.69831964  -4.68070136  -1.58289559
O   -1.32715841   2.30547551   3.33277127
H   -1.65817370   2.79034358   4.08878958
H   -1.70875483   2.75077758   2.57625155
O    3.10314799   0.57865823   2.64714598
H    3.93079299   0.86543026   3.03314780
H    3.30422593   0.44381234   1.72107034
O    0.46103122   3.98554309  -0.01103247
H    0.75328802   3.39567401   0.68385766
H    0.93883652   4.79949867   0.14837349
O   -2.50093565   0.04989025  -0.00613060
H   -2.94572489   0.81285571  -0.37528922
H   -2.85049575  -0.69304272  -0.49815722
O    0.47325025   1.85772906  -1.73251611
H   -0.29175038   1.92596901  -2.30378592
H    0.48820733   2.68520416  -1.25158671
O   -3.47009161   2.35571432  -1.13724956
H   -4.33180592   2.65166848  -1.43066296
H   -2.95485921   2.28316733  -1.94068242
O    0.82693973  -1.36934946  -2.23711020
H    1.13880122  -2.25945801  -2.07376690
H    1.59354501  -0.90412934  -2.57195109
O   -1.65275006  -0.79296456  -3.26202834
H   -2.21485441  -1.37454085  -2.75013034
H   -0.76182135  -1.06071586  -3.03666833
O    0.92359503   1.98439001   1.78297136
H    1.68247182   1.63820184   2.25253670
H    0.25804604   2.10715285   2.45988028
O    2.72918594   0.61541480  -2.67538704
H    1.98457340   1.18195362  -2.47335291
H    3.16982162   1.04957071  -3.40585312
O    1.69417126  -1.79713911   2.08261643
H    0.99311018  -2.18480712   2.60650452
H    2.06334568  -1.11469138   2.64315831
O    3.13383535  -0.06623534  -0.03990941
H    3.41920317  -0.97966016  -0.06117305
H    3.19675314   0.22607716  -0.94920947
O   -0.68122532  -2.85411743   2.97921238
H   -1.11049525  -3.30377859   3.70706129
H   -1.08955267  -1.98865373   2.95745925
K    0.26040487  -0.19033178   0.18529780
