61
Energy:  -1084.85198747
O   -2.93925200  -1.33023500   1.60357088
H   -3.54809180  -1.30922905   0.86525882
H   -2.58773132  -0.44113565   1.65012620
O   -1.76996870   1.12875575   1.21450263
H   -2.46219104   1.50742458   0.67258935
H   -1.51375201   1.83659485   1.80572904
O   -1.35940591   1.39700770  -2.13743089
H   -0.60644581   1.98464007  -2.07441398
H   -1.20454016   0.89334916  -2.93654071
O   -2.44442242  -1.86290388  -2.38614150
H   -3.20254342  -1.59165353  -1.86854355
H   -1.86512982  -2.29213371  -1.75652758
O    3.14980384  -2.38859471   0.79247807
H    3.79451550  -2.76026430   1.39450834
H    2.41871088  -2.12988393   1.35355174
O   -0.52261448  -2.62119947  -0.58483020
H    0.26272905  -3.07201588  -0.89504295
H   -0.71468614  -3.02772081   0.26020278
O    1.98006784  -3.29541357  -1.53000627
H    2.49442360  -3.08665847  -0.75020417
H    2.37376421  -4.09932760  -1.86905972
O   -0.59829895   2.99011821   2.86073756
H   -0.99367154   3.70389038   3.36117902
H    0.02304416   3.42296491   2.27523921
O    2.79803858   2.04635550   2.33360371
H    2.99173559   1.41830666   1.63771006
H    2.26162560   1.55624401   2.95672784
O    1.33576363   3.93680042   1.13897443
H    1.95232157   3.34232275   1.56639045
H    1.76816635   4.79037164   1.16497237
O   -4.41366563  -0.88509060  -0.69982441
H   -4.28244261   0.06254569  -0.73141291
H   -5.35731294  -1.00054581  -0.81132195
O    0.98269211   2.49529216  -1.21109034
H    1.84339614   2.34110661  -1.60050944
H    1.15072743   3.10193473  -0.48999342
O   -3.64450884   1.76647310  -0.72425487
H   -4.12187656   2.54720619  -1.00498203
H   -2.91302845   1.69883778  -1.33792723
O    1.46321456  -0.77118440  -2.60678599
H    0.74884670  -0.78781842  -3.24367979
H    1.66346565  -1.69339972  -2.44662905
O   -0.84957045  -0.50991975  -4.07617784
H   -1.47279680  -1.04718840  -3.58713472
H   -1.10946655  -0.61405632  -4.99151463
O    0.81213478   0.77987569   3.80477779
H    0.24982527   1.52318290   3.58675425
H    0.83410648   0.76811815   4.76165335
O    3.25464703   1.28827354  -2.32344860
H    2.71239108   0.56094451  -2.62870723
H    3.88503929   1.43048272  -3.02957464
O    0.92687681  -1.37503016   2.05416953
H    0.24721251  -2.02219127   2.24250643
H    0.85319709  -0.73632185   2.76329211
O    2.92627948   0.31244810   0.22988393
H    3.25930722  -0.57978137   0.32606574
H    3.28126865   0.61219668  -0.60699439
O   -1.09987809  -3.23398613   2.05536284
H   -1.83912758  -2.63053827   1.98057834
H   -1.44278879  -3.97234574   2.55882006
K    0.21032840  -0.00466013  -0.25538936
