61
Energy:  -1099.45493902
O   -2.01675772  -0.48539335   2.23635167
H   -2.49187916  -0.31842938   1.42234031
H   -2.01723795   0.35664524   2.69154683
O   -1.28078255   2.53330162   0.63350469
H   -1.94766925   2.60266650  -0.04963694
H   -0.61573553   3.17561734   0.38576528
O   -1.29911999   2.02563629  -3.56697110
H   -1.32087552   2.30129653  -4.48336074
H   -1.32914871   1.06959256  -3.60317207
O   -2.77758838  -2.36751721  -1.86477554
H   -3.31475955  -3.14354896  -2.02431774
H   -2.10194695  -2.66449880  -1.25523272
O    3.24906606  -2.55827032   1.14910479
H    3.92343227  -2.85090170   1.76215368
H    2.55566390  -2.20440429   1.70606450
O   -0.76290006  -2.77540653  -0.03856588
H    0.04004410  -3.23188169  -0.28984852
H   -0.90752906  -3.02847184   0.87317545
O    1.73062824  -3.70077256  -0.82581906
H    2.34137489  -3.41445215  -0.14667181
H    2.07142046  -4.54774161  -1.11345761
O   -1.56210220   2.01346935   3.29510076
H   -2.18166452   2.61384401   3.70973874
H   -1.49014014   2.32759205   2.39377937
O    1.74466609   1.96420503   1.53823342
H    2.38310646   1.34830902   1.17865330
H    1.60878956   1.67041200   2.43904143
O    0.94669805   3.98261762  -0.08523314
H    1.36938979   3.41512715   0.55937380
H    1.34646203   4.84139829   0.05230363
O   -2.71881535  -0.06979219  -0.35533122
H   -3.01563332   0.70787198  -0.82795093
H   -2.93392182  -0.79997950  -0.93566521
O    0.88032295   1.89699920  -1.88389012
H    0.17613802   2.03754281  -2.51682213
H    0.94030238   2.72317128  -1.40422982
O   -3.05020441   2.42237092  -1.50270404
H   -3.81422529   2.92996197  -1.77630095
H   -2.50475684   2.36785337  -2.28739930
O    1.09331248  -1.35846938  -2.15295781
H    1.40594223  -2.21550755  -1.86316468
H    1.88441118  -0.89459015  -2.42720358
O   -1.23483760  -0.65385072  -3.39507366
H   -1.85916313  -1.29064375  -3.04730343
H   -0.38027253  -0.97193975  -3.10392122
O    0.88640808   0.90886235   3.93737329
H    1.15039258   1.11067227   4.83504628
H    0.02216040   1.30993552   3.84545974
O    3.11858401   0.45645213  -2.56883221
H    2.41318631   1.09289451  -2.45226879
H    3.66619725   0.82902298  -3.25987674
O    1.12145429  -1.37275065   2.37867043
H    0.42477183  -1.98266901   2.62129151
H    1.06919452  -0.67611822   3.03304342
O    2.99060367   0.00724868   0.14832451
H    3.29219329  -0.86800186   0.39165975
H    3.26705168   0.11184959  -0.76209682
O   -1.09032908  -2.97953362   2.69565739
H   -1.55969249  -3.50791438   3.34121422
H   -1.57630152  -2.15560926   2.66085386
K    0.06759968  -0.00562772   0.08983509
