61
Energy:  -1095.63501980
O   -2.66028547  -0.55667077   2.45660189
H   -2.91863477  -0.44092725   1.54222181
H   -2.57316849   0.33410011   2.79596854
O   -1.37754525   2.67408035   0.39828203
H   -2.05431582   2.73557757  -0.27583335
H   -0.73103624   3.33495396   0.15028200
O   -1.30588726   0.89367313  -2.83633296
H   -0.46446970   1.34843570  -2.79839423
H   -1.12497257   0.09517443  -3.33221757
O   -2.57092382  -2.47377488  -1.78220497
H   -3.20497559  -3.18573105  -1.69659756
H   -1.93062528  -2.63811501  -1.08993195
O    3.33185300  -2.06764460   1.33496757
H    4.09942024  -2.31080488   1.85260206
H    2.62767084  -1.97864698   1.97718152
O   -0.63414957  -2.53857831   0.13724180
H    0.19455040  -2.99187182  -0.01772013
H   -0.85926096  -2.75284928   1.04258409
O    1.88480912  -3.44315993  -0.53592259
H    2.46866476  -3.05258213   0.11430309
H    2.23410233  -4.32359370  -0.67398954
O   -2.04264930   2.09795496   2.99490729
H   -2.51776893   2.78758151   3.45848944
H   -1.94116722   2.43351303   2.10421429
O    2.35617551   2.75479236   1.75121744
H    2.63741619   1.97377796   1.27461276
H    3.10043035   2.97508547   2.31138485
O    0.92834540   4.14393406  -0.14912190
H    1.46495170   3.79065795   0.56044241
H    1.14405345   5.07623587  -0.17182047
O   -2.88156952  -0.17271821  -0.24250029
H   -3.23075450   0.59976460  -0.68699100
H   -2.99045773  -0.88310543  -0.87473854
O    0.99146961   2.05299191  -1.95197542
H    1.09192457   2.87929652  -1.47936423
H    1.88625562   1.78812121  -2.16512645
O   -3.27480113   2.24371172  -1.57100251
H   -3.93291368   2.66532816  -2.12359575
H   -2.65934387   1.84946829  -2.18907720
O    1.31412988  -1.26251951  -2.12724784
H    0.65538778  -1.50183570  -2.77918224
H    1.54816712  -2.09032607  -1.70749230
O   -0.85421800  -1.67335738  -3.76844929
H   -1.52411453  -2.02689555  -3.18323031
H   -1.05995311  -2.05002738  -4.62403367
O    0.40372291   0.94368962   2.50892954
H    1.03339171   1.66138525   2.44065045
H   -0.38675248   1.35085372   2.86332748
O    3.31293541   0.59238944  -2.32014403
H    2.69969757  -0.13429658  -2.43013783
H    3.97908096   0.44807934  -2.99219801
O    1.21208877  -1.63824245   2.91076370
H    0.39662851  -2.12715244   3.02132333
H    0.94694226  -0.71903618   2.94221215
O    2.72324728   0.44104206   0.35737066
H    3.04732545  -0.39211565   0.69950135
H    3.09655644   0.50085928  -0.52200072
O   -1.26778690  -2.83876524   2.79385152
H   -1.81961206  -2.05665502   2.78890841
H   -1.68681413  -3.42413940   3.42471213
K   -0.11958570   0.20896915  -0.12029491
