61
Energy:  -1087.63861768
O   -2.35858550  -0.31154387   2.20389358
H   -2.76606603  -0.31789286   1.33778091
H   -2.38815491   0.60559721   2.47630825
O   -1.71301642   2.31058145   0.16015140
H   -2.29372429   2.19497863  -0.59194314
H   -1.09902695   2.99212550  -0.11324664
O   -1.24493013   0.81694853  -3.82795541
H   -0.56231315   1.23299381  -3.30148392
H   -1.03418124   1.05987263  -4.72951220
O   -2.17680887  -3.06757898  -1.61063245
H   -1.66048715  -3.23181109  -0.82153706
H   -2.57808627  -3.91223946  -1.81497769
O    2.01419296  -3.25899020   1.58664029
H    1.72237200  -2.54963838   2.15925917
H    2.47522679  -3.86303685   2.16871185
O   -0.58776896  -3.00719156   0.61155718
H    0.30403003  -3.30939119   0.78360891
H   -1.01337508  -3.01491009   1.46889708
O    2.45305514  -1.23829015  -0.17814151
H    2.55836943  -1.53826762  -1.08100045
H    2.45779862  -2.04085064   0.34349631
O   -1.93361856   2.33048435   2.86569166
H   -2.58086089   2.96268199   3.17815822
H   -1.89910576   2.47018175   1.91936965
O    1.48849877   1.95367397   1.10577785
H    2.40033214   1.72217500   0.92914269
H    1.40091404   1.87611611   2.05580182
O    0.42994083   3.91592116  -0.46066329
H    0.92345649   3.38764721   0.16671282
H    0.87778789   4.76186875  -0.46678916
O   -2.80271968  -0.60783448  -0.47752922
H   -3.11998030   0.04493258  -1.10160671
H   -2.83270288  -1.43460200  -0.95897322
O    0.56186525   1.67497296  -2.03388849
H    0.55591800   2.54813060  -1.64172499
H    1.47808003   1.52185320  -2.26483580
O   -3.21927463   1.58329445  -2.08964567
H   -3.98560396   1.95606841  -2.52554793
H   -2.61951169   1.36564262  -2.80318891
O    2.50527944  -1.63650177  -2.87095091
H    1.54842838  -1.61525484  -2.88566355
H    2.74272808  -2.24142337  -3.57374523
O   -0.20136365  -1.38358051  -2.50772349
H   -0.87695735  -2.04614565  -2.36345833
H   -0.62092001  -0.73119372  -3.06861187
O    0.58945256   1.52044315   3.69105840
H   -0.29429586   1.84291404   3.51432953
H    0.80624962   1.87483078   4.55340421
O    3.12365028   1.08609724  -2.51848367
H    3.56183232   1.13107269  -1.66865689
H    3.10489962   0.15268567  -2.72972548
O    0.77916586  -1.07434763   2.72613945
H    0.02690540  -1.56007883   3.06437199
H    0.76162215  -0.24349821   3.20112713
O    3.90902305   1.00505261   0.18085563
H    3.52047945   0.13123029   0.13962119
H    4.81299438   0.85298529   0.45643360
O   -1.46913629  -2.62753937   3.20945267
H   -1.96065424  -1.84126625   2.97193103
H   -1.99576488  -3.04254126   3.89258341
K   -0.09675036  -0.14654656   0.09877999
