61
Energy:  -1089.43990406
O   -1.97774464  -1.03346481   1.82008218
H   -2.75484006  -0.75743832   1.33411517
H   -1.93233892  -0.43089503   2.56242969
O   -1.18663292   2.14533254   1.30999085
H   -1.96553999   2.38395647   0.80740331
H   -0.53927170   2.81196024   1.08028928
O   -2.21262625   2.50258633  -2.56503877
H   -1.33032910   2.46369973  -2.19588917
H   -2.18709363   1.90384157  -3.31141980
O   -1.87796637  -0.81064986  -1.72951944
H   -2.67334658  -0.70323297  -1.20792210
H   -1.55144596  -1.67885485  -1.49322222
O    3.50805540  -2.64264443   0.67179860
H    3.94816943  -1.79708786   0.58481830
H    2.77432157  -2.47167001   1.26225119
O   -0.37553309  -2.81795894  -0.66564682
H    0.45567913  -3.15802155  -0.99681975
H   -0.52253107  -3.29636232   0.15029047
O    2.18632204  -3.32711228  -1.56912592
H    2.71759037  -3.21220878  -0.78122809
H    2.57365737  -4.08230201  -2.01172241
O   -1.38369289   0.90543658   3.71299200
H   -1.95124017   1.36640880   4.33075129
H   -1.33667099   1.48448468   2.95225282
O    2.08069426   1.27913227   1.52853437
H    1.99074281   0.93570623   2.41746583
H    2.88745897   0.88332491   1.19883892
O    1.07393493   3.64370939   0.61897189
H    1.57354568   2.92760139   1.01115843
H    1.52990480   4.43682566   0.90055651
O   -3.91442693  -0.18648347   0.05062427
H   -3.87248432   0.76628548  -0.03125373
H   -4.84515796  -0.39379994  -0.03299073
O    0.24649914   2.06416899  -1.50760417
H    0.69135175   2.76858351  -1.03628879
H    0.78747529   1.91530738  -2.28311489
O   -3.48051051   2.50626633  -0.20017266
H   -4.07649987   3.25416433  -0.15922004
H   -3.11072543   2.54209875  -1.08233301
O    2.15787395  -0.56565003  -1.68021590
H    1.92886739  -0.17548512  -2.52375557
H    2.18783474  -1.50694103  -1.85140427
O   -1.42584799   0.31287115  -4.17190468
H   -1.62254272  -0.14172466  -3.35282857
H   -1.90966232  -0.17423905  -4.83889733
O    1.25514394   0.12615805   3.94047164
H    1.57769970   0.14820907   4.84141747
H    0.34334551   0.41022325   4.00498845
O    1.24587873   0.90256080  -3.84250933
H    1.62658809   1.18829570  -4.67295969
H    0.33776850   0.68810332  -4.05599385
O    1.25916475  -1.83233038   2.00037945
H    0.61246327  -2.51817913   2.16657371
H    1.28738226  -1.32711156   2.81289996
O    4.11199875   0.02549861   0.14534536
H    3.53744816  -0.12666370  -0.60496798
H    4.94556432   0.29378867  -0.24120444
O   -0.89757725  -3.54179269   1.97241781
H   -1.45108177  -2.76205056   2.01562438
H   -1.38327296  -4.20811024   2.45857874
K    0.10558575  -0.13319539   0.13570238
