61
Energy:  -1092.84993133
O   -2.44927204  -0.58299207   1.76660458
H   -2.79575323  -0.40218092   0.89282545
H   -2.59400084   0.22763180   2.25463569
O   -1.43942158   2.53501816   0.54170333
H   -2.01993356   2.76075959  -0.18512436
H   -0.72184100   3.16554115   0.48046020
O   -1.40621181   1.21968461  -3.02261544
H   -0.59453816   1.55066428  -2.63807650
H   -1.14461062   0.42560163  -3.48869365
O   -2.31118975  -2.73314995  -2.20681545
H   -2.94498479  -3.45019881  -2.22622236
H   -1.75198665  -2.92742121  -1.45463036
O    3.27809790  -2.15861880   1.42974904
H    3.94475907  -2.44024693   2.05623155
H    2.48020657  -2.07150584   1.95129731
O   -0.65074173  -2.85938580  -0.06129562
H    0.21951783  -3.25012370  -0.14006140
H   -0.93989575  -3.09328731   0.82069751
O    1.98489477  -3.53312189  -0.56752216
H    2.53472904  -3.14053259   0.11055436
H    2.41705185  -4.36102866  -0.77738518
O   -2.37341128   1.89508451   2.99213034
H   -3.00633265   2.50089747   3.37765992
H   -2.16616090   2.27558886   2.13861082
O    2.27968686   2.70458898   2.23951043
H    2.57750448   1.93963173   1.74719253
H    3.02479866   2.93887628   2.79281840
O    0.87562039   4.00433467   0.27395645
H    1.42218309   3.68746473   0.99304928
H    1.03620687   4.94761381   0.24810508
O   -2.51585572  -0.26600928  -0.98528640
H   -2.33419415   0.35386820  -1.69167357
H   -2.63413427  -1.10640466  -1.42798001
O    0.79940951   1.94202167  -1.57188396
H    0.87549530   2.75721625  -1.07600031
H    1.69933213   1.72353042  -1.81402585
O   -2.88750468   3.13951582  -1.68620605
H   -3.58682885   3.60442853  -2.14559012
H   -2.48349569   2.58973121  -2.35758185
O    1.37008005  -1.19250126  -1.91590818
H    0.75497667  -1.32063381  -2.63803125
H    1.58524441  -2.07831438  -1.62389574
O   -0.60748097  -1.33615437  -3.83992649
H   -1.25251362  -1.88429202  -3.39303740
H   -0.62700698  -1.63524039  -4.74899092
O    0.24053971   0.95279504   2.94436146
H    0.85757480   1.68381538   2.91106289
H   -0.59570452   1.35509736   3.17905332
O    3.25936463   0.76175900  -1.95957528
H    2.70895631  -0.00808477  -2.10318270
H    3.92503496   0.71219897  -2.64562095
O    0.88233888  -1.66005862   2.54778430
H    0.10946708  -2.19321217   2.73392490
H    0.68726120  -0.80925810   2.94061381
O    2.73399741   0.46857282   0.72435455
H    3.07271201  -0.39172857   0.97211611
H    3.07649441   0.61657366  -0.15713476
O   -1.51757217  -3.00902379   2.55645961
H   -1.99868942  -2.19774909   2.39339094
H   -2.06636357  -3.49370184   3.17302026
K   -0.05374882  -0.01533103   0.28996394
