61
Energy:  -1086.92624225
O   -2.17630184  -0.59633979   1.53533212
H   -2.95260969  -0.32919866   1.04318012
H   -2.14649670   0.00350336   2.28067211
O   -1.28036389   2.44843426   1.00288458
H   -1.96490306   2.66402919   0.36951518
H   -0.64290609   3.15742341   0.91795054
O   -1.15577784   1.30507922  -2.22429535
H   -0.35846946   1.82955523  -2.15042988
H   -1.01152130   0.75636484  -2.99522623
O   -1.96114075  -2.47739995  -3.14489079
H   -1.59079593  -2.52459857  -2.26350050
H   -2.71426987  -3.06768981  -3.12067809
O    3.18624439  -2.58479452   0.85019038
H    3.80299613  -2.99786052   1.45452938
H    2.43043453  -2.36204186   1.39366489
O   -0.61940828  -2.45274066  -0.75788206
H    0.20062237  -2.89369720  -0.98000573
H   -0.90845045  -2.87642570   0.05031189
O    1.90112354  -3.30026351  -1.46111912
H    2.44209938  -3.15492549  -0.68494011
H    2.25300529  -4.09971882  -1.85263194
O   -1.76722455   1.33805947   3.44294208
H   -2.46975161   1.80025100   3.90018007
H   -1.60575834   1.86241834   2.65858994
O    1.63931954   1.75556443   2.14008669
H    2.29933332   1.22984271   1.68816817
H    1.42931589   1.25251499   2.92689770
O    0.97586791   4.05757941   0.86782311
H    1.31663330   3.36254375   1.43088281
H    1.34397615   4.86297326   1.23123598
O   -4.29045054   0.38262968   0.14817107
H   -4.01763896   1.19383843  -0.28048503
H   -5.22549887   0.31230810  -0.04410832
O    1.15951567   2.42625319  -1.35458379
H    2.06157896   2.23186968  -1.60900218
H    1.23762395   3.13574399  -0.71681129
O   -3.17901112   2.62645354  -1.00197316
H   -3.52118717   3.33717951  -1.54420557
H   -2.54840779   2.17736615  -1.56490460
O    1.55974892  -0.70998135  -2.38692097
H    0.92035869  -0.69076317  -3.09899024
H    1.71574808  -1.64117584  -2.22952679
O   -0.49078581  -0.48613623  -4.21014825
H   -1.05757406  -1.20867693  -3.94011519
H   -0.57092027  -0.46170682  -5.16367513
O    0.60760574   0.13978088   4.12786817
H   -0.24747933   0.55876346   4.03032342
H    0.77785630   0.15822179   5.06962532
O    3.52337968   1.14761735  -2.06837341
H    2.91129146   0.47064101  -2.35696119
H    4.16954536   1.20283164  -2.77239979
O    0.92171511  -1.69647575   2.08685410
H    0.18115953  -2.30158531   2.12749527
H    0.84583087  -1.17050799   2.88298935
O    2.99702876   0.14905215   0.44343322
H    3.28796968  -0.76075489   0.50537179
H    3.39043488   0.47216089  -0.36716176
O   -1.38811678  -3.16912555   1.79160290
H   -1.84355255  -2.32726068   1.78302115
H   -1.98988405  -3.76296217   2.24045262
K    0.13344737   0.14705710   0.02049383
