61
Energy:  -1084.47248595
O   -2.09580925  -1.02941379   1.36833678
H   -2.89619149  -0.76561512   0.91443108
H   -2.09307039  -0.50928070   2.17188262
O   -1.41344317   2.06659704   1.07573859
H   -2.09985339   2.38435243   0.48913449
H   -0.76646229   2.77184392   1.09230422
O   -1.33822396   2.36716825  -2.58995642
H   -0.47129155   2.52003281  -2.21406753
H   -1.18465263   1.74773731  -3.30336585
O   -2.22211794  -0.76313271  -2.10163853
H   -3.00078402  -0.61910118  -1.56389705
H   -1.91625163  -1.63521463  -1.85233797
O    2.05884266  -1.84652585   0.33039533
H    2.82060623  -1.28282282   0.46525454
H    1.88138062  -2.22068265   1.19338186
O   -0.74484585  -2.79443372  -1.14420169
H    0.05603052  -3.14980687  -1.52960903
H   -0.81993708  -3.23516096  -0.29782550
O    1.82532056  -3.17352849  -2.05575779
H    2.05165504  -2.85036849  -1.18364990
H    2.35813375  -3.96110454  -2.16560277
O   -1.70653692   0.73992037   3.43702471
H   -2.41657778   1.11088634   3.96091217
H   -1.62944396   1.32859156   2.68618867
O    1.60207912   1.00696897   1.77663724
H    2.48265505   0.73337750   1.51979958
H    1.44867551   0.56761743   2.61309968
O    0.89863773   3.58729605   1.24299512
H    1.33099456   4.26859938   1.75789821
H    1.25232330   2.76656686   1.58583906
O   -4.11923577  -0.02061595  -0.24765109
H   -3.98688432   0.90957174  -0.43058769
H   -5.06639444  -0.14477852  -0.30852766
O    1.00950093   2.33426138  -1.19750786
H    1.09139937   2.93909481  -0.46014701
H    1.91211998   2.14158241  -1.45125088
O   -3.35853065   2.57296147  -0.80835097
H   -3.86944558   3.35943876  -0.99979615
H   -2.72009811   2.52245218  -1.51974716
O    1.39012442  -0.50101165  -2.66168618
H    0.74249267  -0.33072776  -3.34565135
H    1.53350149  -1.44675190  -2.69704488
O   -0.80378987   0.16589203  -4.21269003
H   -1.42294697  -0.22956809  -3.59910415
H   -1.16757062  -0.02506682  -5.07723045
O    0.76820659  -0.28819513   4.06656597
H   -0.12470451   0.03573781   3.94820605
H    0.98182711  -0.07647124   4.97528546
O    3.41478738   1.15320441  -1.89355930
H    3.95493814   1.44089545  -2.62956397
H    2.79557638   0.53292054  -2.27834171
O    1.31151708  -2.70333380   2.84181678
H    1.64123099  -3.33881200   3.47718128
H    1.11118675  -1.92539350   3.36230548
O    3.94819338   0.13557279   0.60497588
H    4.88443810   0.13676576   0.80416484
H    3.88825347   0.52164889  -0.26885723
O   -0.94257767  -3.52936548   1.44996078
H   -1.49807654  -2.75632616   1.55027559
H   -0.18174369  -3.35155000   2.00290305
K   -0.09738240  -0.09204642  -0.31958336
