61
Energy:  -1093.80266941
O   -2.22347609  -0.63783678   1.36184011
H   -2.94236694  -0.81877900   0.75629267
H   -2.46441601   0.18866153   1.78026616
O   -2.91736593   1.97870834   2.02386081
H   -3.32967100   2.07677103   1.16559506
H   -3.53091930   2.38923634   2.63316440
O   -1.53518221   1.37410066  -1.68587946
H   -0.78230720   1.96517359  -1.67925667
H   -1.46351428   0.90347683  -2.51630632
O   -2.60594122  -2.00055759  -2.29330184
H   -3.27826312  -1.64631568  -1.71129859
H   -1.94343558  -2.36050843  -1.70359555
O    3.42670773  -2.41834969   0.36655327
H    4.17095765  -2.78457741   0.84425732
H    2.76245773  -2.26464300   1.03840000
O   -0.54900583  -2.60967737  -0.58357761
H    0.22683077  -3.04342166  -0.93878926
H   -0.67982825  -3.01578121   0.27327535
O    1.87084308  -3.25922190  -1.73581249
H    2.51130153  -3.06354280  -1.05188668
H    2.22009800  -4.03342822  -2.17723907
O   -0.16560189   1.80100378   2.05924357
H   -1.09103855   2.04092277   2.10654805
H    0.28103383   2.61334540   1.82081226
O    3.21165096   1.98340639   2.21909405
H    3.30528689   1.39453630   1.47029756
H    2.81106358   1.44344499   2.90041870
O    1.51779706   3.81115713   1.20536501
H    1.77746245   4.71238936   1.39664018
H    2.21718944   3.27534669   1.57951648
O   -4.29244930  -0.81988682  -0.44277308
H   -4.32689091   0.13140105  -0.54325697
H   -5.20963260  -1.08947468  -0.39451294
O    0.88507449   2.50098300  -1.14504105
H    1.16082637   3.08436651  -0.43803580
H    1.68502698   2.33254643  -1.64297377
O   -3.93104960   1.91378916  -0.54180791
H   -4.39554745   2.58421375  -1.04281137
H   -3.10171043   1.79903301  -1.00576849
O    1.21280537  -0.67403663  -2.55209121
H    0.44305820  -0.65355754  -3.12068751
H    1.42660720  -1.60352309  -2.47100142
O   -1.19559468  -0.32926578  -3.83431239
H   -1.75072972  -0.97424276  -3.39606403
H   -1.47639763  -0.35298855  -4.74909039
O    1.47876786   0.42640742   3.76388016
H    0.82109874   0.95656038   3.31372350
H    1.34442281   0.61506325   4.69263860
O    3.04112433   1.35224819  -2.47635181
H    2.46323427   0.62601220  -2.71056585
H    3.58030688   1.49064400  -3.25504342
O    1.35503083  -1.66644652   1.98081232
H    0.60524285  -2.21004187   2.22279152
H    1.45715920  -1.05869400   2.71323195
O    3.00557121   0.30430896   0.06881610
H    3.36352810  -0.58343880   0.07043652
H    3.23993554   0.65600390  -0.79002957
O   -1.04549664  -2.99142237   2.13765522
H   -1.58440332  -2.21014403   2.01349564
H   -1.57106396  -3.55825456   2.70220116
K    0.23307653  -0.01660970   0.00534155
