61
Energy:  -1085.87622886
O   -2.82701238  -1.38463749   1.17826545
H   -3.47982505  -1.29197653   0.48437684
H   -2.69820950  -0.49491578   1.50695520
O   -1.97007830   1.20401418   1.31193840
H   -2.50897121   1.65207251   0.65996447
H   -1.65041750   1.90404968   1.88114760
O   -0.79573979   1.53543308  -1.85563260
H   -0.03059990   2.07947679  -1.66906027
H   -0.60207601   1.13080763  -2.70121195
O   -1.96445662  -1.52784605  -2.22431868
H   -2.85571908  -1.34641768  -1.92604560
H   -1.72816644  -2.34741057  -1.78990782
O    2.78204287  -2.28219852   0.80740718
H    3.33158704  -1.49848170   0.80282488
H    2.12075320  -2.10769566   1.47709113
O   -0.67480298  -3.27604317  -0.54536650
H    0.18717148  -3.60589867  -0.79919169
H   -0.82988629  -3.65175549   0.32124833
O    1.94153500  -3.51846926  -1.41950592
H    2.33971666  -3.18833012  -0.61409214
H    2.48678208  -4.26479981  -1.66835965
O   -0.80431432   3.08252406   2.93749249
H   -1.27165629   3.71552529   3.48259136
H   -0.36200520   3.61528462   2.27661378
O    1.55524564   1.04930867   1.11995556
H    1.33535530   1.00868571   2.05067027
H    2.46651741   0.75971324   1.07579582
O    0.36156870   4.53787750   0.94223390
H    0.77241675   4.08049130   0.20858985
H    0.63772956   5.44888173   0.84204246
O   -4.30021041  -0.64682117  -1.05535309
H   -4.11422517   0.29209467  -1.06420705
H   -5.22656822  -0.71017706  -1.28790219
O    1.45458773   2.79097046  -0.92788896
H    2.22103865   2.52334903  -1.43500198
H    1.48778225   2.24972983  -0.13909967
O   -3.34347260   1.95703050  -0.97496178
H   -3.69846994   2.80001497  -1.25707152
H   -2.48703552   1.90326415  -1.39905675
O    1.56574705  -0.85353577  -2.09669540
H    1.01933148  -0.75423733  -2.87631178
H    1.74656434  -1.79225748  -2.04833730
O   -0.34521915  -0.22868834  -3.96962981
H   -1.01152188  -0.75471673  -3.52740063
H   -0.54075084  -0.32765465  -4.90140493
O    0.61864688   0.83405488   3.70062497
H    0.08424087   1.61664141   3.56571616
H    1.04171692   0.97542104   4.54753653
O    3.49661919   1.07211916  -1.92005533
H    2.85632580   0.37377635  -2.05634009
H    4.03655887   1.06023418  -2.71034372
O    0.54627663  -1.64162757   2.29438893
H   -0.08579260  -2.32712739   2.51074587
H    0.44123376  -0.99066789   2.98825444
O    4.09022958   0.16455616   0.61052343
H    4.98057209   0.36765632   0.89735507
H    4.04576995   0.49537484  -0.28659095
O   -1.45701813  -3.54216713   2.14829330
H   -2.09450836  -2.87600880   1.89125023
H   -1.96273395  -4.17347614   2.66008651
K   -0.32945977  -0.57107756  -0.07821082
