61
Energy:  -1099.36383711
O   -2.05232077  -0.62441213   2.40581160
H   -2.55913177  -0.48787384   1.60535439
H   -2.07849899   0.22118120   2.85360448
O   -1.32860631   2.45596642   0.66052916
H   -2.00371961   2.49056028  -0.01715598
H   -0.68744532   3.11500161   0.39441443
O   -1.52150673   1.82814015  -3.52119374
H   -1.58704894   2.06475767  -4.44636844
H   -1.50493555   0.87108648  -3.51884394
O   -2.78593672  -2.56281932  -1.65646676
H   -3.31384989  -3.34929056  -1.79431638
H   -2.09284925  -2.84091509  -1.05769774
O    3.49651916  -2.26265831   1.00304280
H    4.23752821  -2.53651685   1.54354159
H    2.77787952  -2.14299074   1.62390397
O   -0.72826676  -2.91963230   0.13229014
H    0.10862126  -3.32168413  -0.10052871
H   -0.86095250  -3.15605870   1.05029280
O    1.84222272  -3.66883864  -0.68300360
H    2.50912917  -3.28585672  -0.11309792
H    2.21601584  -4.50479668  -0.96172338
O   -1.74471680   1.97577085   3.30442205
H   -2.26773579   2.62593704   3.77342835
H   -1.72294315   2.29159938   2.40108928
O    2.56181743   2.69914256   1.54772545
H    2.78635803   1.88975873   1.08869258
H    3.37513945   2.96542726   1.97648133
O    0.81374678   3.99464638  -0.13272680
H    1.47701108   3.66466691   0.47342983
H    0.98939428   4.93367922  -0.19270290
O   -2.79699883  -0.23616052  -0.18445366
H   -3.10930322   0.52694201  -0.67063505
H   -2.99341888  -0.98023111  -0.75367239
O    0.64953678   1.82270348  -1.82212435
H   -0.06545634   1.92749723  -2.44984638
H    0.70360867   2.66817993  -1.37661604
O   -3.18160832   2.22886333  -1.38982404
H   -3.98333574   2.68874959  -1.63876104
H   -2.68225792   2.15944214  -2.20349579
O    1.04305451  -1.38900880  -1.99650808
H    1.39231827  -2.23278040  -1.70963498
H    1.81030344  -0.90062272  -2.29490375
O   -1.32364651  -0.83553712  -3.24645114
H   -1.91693866  -1.48726658  -2.87297425
H   -0.45507017  -1.10014329  -2.94348156
O    0.77490888   0.96682117   2.77448640
H    1.36229849   1.68969970   2.55391457
H    0.00290959   1.39073664   3.14937920
O    2.94950224   0.53520646  -2.50342299
H    2.18560678   1.10681392  -2.42621874
H    3.43457660   0.88267406  -3.25188874
O    1.28142050  -1.68864303   2.40428394
H    0.55714048  -2.21868850   2.73700318
H    1.14759608  -0.82596627   2.79685455
O    2.83106161   0.31951602   0.22986394
H    3.20089764  -0.52383843   0.49102756
H    3.04000200   0.39520671  -0.70118208
O   -1.04316297  -3.08835717   2.87923217
H   -1.46574323  -3.59560378   3.57231128
H   -1.53051241  -2.26491936   2.85329867
K   -0.03000978  -0.13414687   0.27071072
