61
Energy:  -1085.86603300
O   -1.97278048  -0.45465891   2.25176774
H   -2.53964220  -0.33577511   1.48968751
H   -2.04527451   0.36814065   2.73547978
O   -1.40584935   2.69760061   0.75483984
H   -2.17179610   2.77729295   0.18632725
H   -0.75708806   3.28502090   0.36718274
O   -2.15914162   1.67043031  -3.11647434
H   -1.23446238   1.69172305  -2.87000575
H   -2.36310954   0.73920929  -3.20282450
O   -0.95944743  -2.96318906  -2.60196528
H   -1.09768236  -3.89549104  -2.76910584
H   -0.80009805  -2.90935405  -1.65965885
O    3.59624431  -1.96128061   1.23774218
H    4.34054038  -2.03885472   1.83459851
H    2.86959273  -1.68296790   1.79519295
O   -0.16437276  -2.55922263  -0.01280804
H    0.69501738  -2.96134960  -0.13919766
H   -0.43269983  -2.83671842   0.86310778
O    2.33250037  -3.56300230  -0.57481545
H    2.87962692  -3.08236881   0.04637360
H    2.73862165  -4.42780861  -0.63318837
O   -1.62826833   2.04853672   3.38737996
H   -2.24535409   2.60933396   3.85742620
H   -1.57625625   2.43050655   2.51123748
O    1.68974034   2.26413323   1.46118880
H    2.30687977   1.64854124   1.06569258
H    1.63729409   1.99543870   2.37840442
O    0.74143292   3.94674814  -0.45126257
H    1.23596410   3.52708131   0.25269091
H    1.10702964   4.82954874  -0.50813083
O   -2.80379655  -0.01877290  -0.33041755
H   -3.19184127   0.84282329  -0.48307779
H   -2.91812036  -0.48373449  -1.15925567
O    0.35495122   1.65927829  -1.98095336
H    0.55368152   2.53712671  -1.65519228
H    1.16245684   1.37326144  -2.40799071
O   -3.51583498   2.56653688  -0.97884769
H   -4.28642819   3.08185620  -1.21730934
H   -3.09087162   2.36991675  -1.81370008
O    1.65254838  -2.00695595  -2.77623479
H    0.75981351  -2.31721545  -2.92787695
H    2.00317463  -2.60016335  -2.11185684
O   -2.85482130  -1.02330715  -2.90562409
H   -2.20017538  -1.72156322  -2.91606562
H   -3.54432213  -1.33196938  -3.49345746
O    0.95693397   1.26038688   3.95240938
H    0.05296498   1.56698062   3.88118996
H    1.23637508   1.53771893   4.82489517
O    2.69196677   0.48081103  -2.86082513
H    2.35336668  -0.40901609  -2.95976718
H    3.25120950   0.61131486  -3.62662416
O    1.33277013  -1.04082015   2.47774711
H    0.69198481  -1.70879804   2.72153301
H    1.22623846  -0.35438318   3.13629638
O    2.73989765   0.29903695  -0.10491759
H    3.23572050  -0.46210548   0.19683355
H    2.93139099   0.35442644  -1.04113026
O   -0.76136562  -2.83876372   2.67944571
H   -1.34747825  -2.08225360   2.65953966
H   -1.17811215  -3.44929212   3.28756515
K   -0.04150706   0.22253531   0.29981460
