13
Energy:    -77.46970873
C   -1.14722550   2.72246306   0.93747286
H   -1.08401375   3.19491120  -0.02049227
H   -1.73172271   1.82982915   0.85705638
H   -0.16373101   2.47525361   1.27883070
C   -1.81246218   3.68301497   1.94066786
N   -2.30776113   4.39818952   2.68759213
C    1.05946629  -2.79403834  -1.19404652
H    0.20880085  -3.25970347  -1.64617977
H    1.60479547  -2.24977278  -1.93653570
H    0.73312464  -2.12257382  -0.42753779
C    1.96861188  -3.87357307  -0.57788173
N    2.64551211  -4.67733575  -0.11911904
Cl   0.02660505   0.67333571  -1.77982711
