13
Energy:    -74.92402000
C    0.53979631  -3.03757429  -0.30708289
H    0.79523568  -3.21798077   0.71619831
H   -0.42717256  -2.58234081  -0.35839347
H    1.26509934  -2.38474089  -0.74599422
C    0.51997268  -4.37271417  -1.07429115
N    0.50521309  -5.36678650  -1.64551258
C   -0.56307370   3.05288489   0.24513521
H   -0.54651376   2.67297684   1.24528312
H    0.20514931   2.57875369  -0.32926195
H   -1.51588871   2.85033890  -0.19760373
C   -0.32123272   4.57358049   0.26958558
N   -0.14117112   5.70580749   0.28778999
Cl  -0.31541384  -0.47220487   1.89414780
