13
Energy:    -76.38503968
C    2.33471011   1.25563448  -1.02646161
H    2.17834332   2.31297955  -0.97675239
H    3.14477453   0.98420865  -0.38223901
H    1.44562616   0.74855055  -0.71454061
C    2.67349106   0.85431935  -2.47414031
N    2.92572888   0.55552200  -3.55200291
C   -2.17584315  -0.98602142   1.33312364
H   -1.44977226  -1.58354057   1.84370381
H   -2.61319884  -0.29186117   2.01997198
H   -1.70117203  -0.44997282   0.53798950
C   -3.27455078  -1.89662326   0.75411946
N   -4.09258855  -2.57460773   0.32302453
Cl   0.60445155   1.07141239   2.31420392
