13
Energy:    -73.36406123
C    1.03041924   1.41227927   1.22116524
H    0.15152741   1.35841824   1.82907012
H    1.81718873   1.88325226   1.77259729
H    1.33224745   0.42435716   0.94222309
C    0.72859899   2.23382065  -0.04594734
N    0.50388010   2.84549555  -0.98937026
C   -0.71991566  -1.55210863  -0.86840466
H   -0.87686360  -2.61034696  -0.84842550
H   -0.82076429  -1.15783713   0.12118042
H    0.26294333  -1.34419924  -1.23672651
C   -1.76346539  -0.89572566  -1.79131601
N   -2.54043560  -0.40701870  -2.47846545
Cl   0.89463930  -2.19038682   2.37241957
