13
Energy:    -74.54322225
C    0.21230989  -2.96372277   2.34883724
H    0.50628482  -2.49888113   3.26666138
H   -0.82800644  -2.78363063   2.17503319
H    0.78465416  -2.55473664   1.54257954
C    0.46273614  -4.48058232   2.43841301
N    0.64918987  -5.60995319   2.50510624
C   -0.21147161   3.01223613  -2.13498307
H    0.41595654   2.43472319  -2.78129020
H   -1.17098697   2.54493689  -2.05842728
H    0.23480054   3.07159664  -1.16430465
C   -0.37581285   4.43055240  -2.71201939
N   -0.49817238   5.48655333  -3.14164915
Cl  -0.18148173  -0.08909190  -0.28395685
