13
Energy:    -74.64786560
C    1.18375299  -3.20362167  -0.28662853
H    1.64405187  -2.74345027  -1.13590317
H    1.90573127  -3.31127123   0.49571284
H    0.37522710  -2.59214959   0.05584318
C    0.64582959  -4.59105475  -0.68319863
N    0.24532117  -5.62406175  -0.97846309
C   -0.84939296   3.19443954   0.37723472
H    0.09293788   3.53393715   0.00086504
H   -1.16655666   2.33600884  -0.17720466
H   -0.74813241   2.93442419   1.41020975
C   -1.89490767   4.31554497   0.23019184
N   -2.67334089   5.15025892   0.12071173
Cl   1.23947872   0.60099564   0.57062899
