13
Energy:    -75.93251837
C    2.44900480   1.34976512  -2.29682827
H    2.40252164   0.57941148  -3.03797250
H    1.64262455   2.03712528  -2.44577791
H    2.37024788   0.91315143  -1.32314201
C    3.78984403   2.09761234  -2.41713903
N    4.78815979   2.65441859  -2.50671586
C   -2.54276895  -1.45053504   1.97489169
H   -2.69648636  -1.91599832   1.02377914
H   -1.60897512  -1.77525771   2.38413900
H   -2.52865963  -0.38752189   1.85363548
C   -3.68580478  -1.84320295   2.92929256
N   -4.53684690  -2.13556205   3.63988738
Cl   0.15713905  -0.12340627   0.22195034
