13
Energy:    -77.61423380
C    1.79490255   2.35389994  -1.21738960
H    0.96096132   2.12431990  -0.58752040
H    2.48486939   1.53612631  -1.20784292
H    1.45176588   2.51939139  -2.21727405
C    2.49597958   3.62312456  -0.69858342
N    3.01796329   4.56811998  -0.31230864
C   -1.97108631  -2.46175344   0.85574905
H   -2.90145428  -2.64004457   0.35822730
H   -1.16748076  -2.82681565   0.25089635
H   -1.84798413  -1.41102067   1.01607868
C   -1.96581829  -3.19200183   2.21159179
N   -1.96189600  -3.73570495   3.22107834
Cl  -0.39072223  -0.45764098  -1.67270249
