13
Energy:    -74.96171466
C   -1.81583828  -0.52179743  -2.05168251
H   -0.85724937  -0.73410209  -1.62631887
H   -2.58358181  -0.85523338  -1.38513212
H   -1.91152030   0.53253375  -2.20702017
C   -1.95280260  -1.25378899  -3.39965474
N   -2.05477877  -1.79878997  -4.40328134
C    1.68664270   0.30464612   2.06607400
H    0.72108454   0.38047693   2.52087868
H    1.86353599  -0.70866981   1.77145784
H    1.72605186   0.93851466   1.20493715
C    2.76501277   0.74162780   3.07491741
N    3.56790829   1.06698052   3.82604718
Cl  -1.15446502   1.90760189   0.60877749
