13
Energy:    -77.71205127
C    3.33528182  -0.31154137   0.88511858
H    2.53103365   0.35584354   1.11464513
H    3.17162374  -1.24889832   1.37448253
H    3.38076663  -0.46469570  -0.17288614
C    4.66288155   0.29744538   1.37319040
N    5.65133989   0.75086371   1.73658206
C   -3.31705972   0.14459351  -0.78234650
H   -3.15334104   0.26752639   0.26788389
H   -2.82905487   0.93441942  -1.31425381
H   -2.91862752  -0.79708497  -1.09761226
C   -4.82850166   0.18621633  -1.07459777
N   -5.95383889   0.21720641  -1.29219212
Cl   0.26749644  -0.33189432  -1.01801400
