13
Energy:    -74.28974130
C   -0.84673291   2.63070964  -0.27545474
H    0.13807518   2.58900881   0.14085553
H   -0.80695747   2.36977931  -1.31238886
H   -1.48194402   1.94211092   0.24149569
C   -1.40713913   4.05734221  -0.12624224
N   -1.82438703   5.11953501  -0.01514676
C    0.92167180  -2.69118475   0.36713049
H    1.04088012  -1.67933680   0.04024626
H    0.62326374  -2.70125425   1.39462760
H    0.17245855  -3.17188852  -0.22658871
C    2.25789484  -3.44114407   0.21328321
N    3.25277363  -3.99952288   0.09873691
Cl  -2.03985731  -1.02415463  -0.54055439
