13
Energy:    -74.49510784
C   -1.76811828  -1.45507556  -2.52144753
H   -2.01620319  -2.39815431  -2.08104255
H   -2.47652357  -0.71730392  -2.20719597
H   -0.78702562  -1.16300960  -2.20991303
C   -1.80352751  -1.57994368  -4.05596835
N   -1.82989129  -1.67291368  -5.19848885
C    1.69683594   1.29827225   2.57778356
H    2.11018166   1.63138328   1.64876120
H    0.62858542   1.32565082   2.52309968
H    2.01844556   0.29649162   2.77246770
C    2.17653271   2.22125359   3.71338757
N    2.53368875   2.90845515   4.55889637
Cl  -0.48298057  -0.69510596   0.47966020
