25
Energy:   -464.47689530
O    0.78879286   1.41803027  -2.82009886
H    1.12393936   1.97519460  -3.52257775
H   -0.09277144   1.17710921  -3.10476231
O   -0.16022139  -1.75471509  -2.15910273
H   -0.82762544  -1.16644546  -2.51229183
H    0.10034991  -2.29669779  -2.90381019
O   -0.69711821  -0.16786918   1.77302938
H   -0.24935567  -0.00142125   2.60250852
H   -0.54918031  -1.09813995   1.60290435
O    0.94971114   0.44248244   3.94473227
H    1.20079476  -0.23185868   4.57596354
H    0.67595657   1.18511272   4.48305426
O   -1.67298492   1.30307690  -0.32202034
H   -1.62848745   0.83055057   0.50922613
H   -2.08520034   2.13834759  -0.10149106
O    0.25938900  -2.42294628   0.48745352
H   -0.03460731  -2.49180041  -0.42087303
H    0.43142065  -3.32629710   0.75314929
O    2.48612738   0.87298583   1.65131926
H    3.34962919   1.21757627   1.87903375
H    2.04461037   0.75678401   2.49262284
O   -1.78862661   0.33329301  -2.89931282
H   -1.96405419   0.70215467  -2.03363500
H   -2.61866391   0.41714920  -3.36860811
K    0.97915743   0.19746289  -0.44958927
