25
Energy:   -463.86702544
O   -0.24619057  -1.69967327   0.30640072
H    0.40439826  -1.92113904  -0.35987170
H   -1.05256198  -1.54813365  -0.18658279
O   -1.22089640   1.70565987  -1.24103297
H   -1.45080683   2.49050015  -1.73842495
H   -0.28975818   1.57303493  -1.41886459
O   -1.94896335  -0.90716556  -1.78423651
H   -2.83767480  -1.02235810  -2.12062094
H   -1.86207981   0.03718135  -1.65426724
O    2.29461385   0.75509914   0.90960315
H    2.04532012   0.88395479  -0.00553657
H    3.20694248   1.04155074   0.95242596
O   -1.46046383   1.52046078   1.50711471
H   -2.15959808   2.10622996   1.79748965
H   -1.42266258   1.64359990   0.55862134
O    1.41262919   1.02925649  -1.69740578
H    1.26365738   0.13108690  -1.99292336
H    1.97046951   1.41477586  -2.37299503
O    0.54035767  -1.12690791   4.94740860
H    0.75989932  -0.65027836   5.74794441
H    0.40426139  -2.02960673   5.23523579
O    0.69950558  -1.51255784  -2.39502389
H    0.86799860  -2.16388546  -3.07591616
H   -0.25353253  -1.42522971  -2.37702359
K    0.33455481  -0.22185578   2.43267501
