25
Energy:   -468.44328727
O    0.47439760   0.13696482  -1.75693131
H    0.71830864   0.94742962  -1.30984512
H   -0.43359300   0.27543659  -2.02639463
O   -1.80699572  -2.47573814  -1.55271916
H   -2.51016122  -3.03857964  -1.87675552
H   -2.11538125  -1.58536604  -1.72114639
O   -0.17203277  -0.91946833   1.59319250
H    0.61601535  -0.41118361   1.78517859
H   -0.40271778  -1.32875622   2.42715874
O   -1.71654747   1.20180101   0.67299328
H   -2.34605007   1.47551455   1.34010589
H   -1.29531280   0.42656583   1.04421237
O    0.76591526   2.26348344   0.01564022
H   -0.14820938   2.11120810   0.25526534
H    0.80121058   3.19078600  -0.21908527
O    2.99554194  -1.71427186   0.52336110
H    3.93089317  -1.90373233   0.59721682
H    2.88398936  -0.87699479   0.97364432
O    2.10636954   0.60958696   1.76022922
H    1.78693827   1.28244631   1.15901727
H    2.56805738   1.09699608   2.44251108
O   -2.30248583   0.22989584  -1.85120028
H   -2.27112832   0.63998342  -0.98686427
H   -2.94069141   0.74928262  -2.34024307
K    0.70583779  -2.27707259  -0.70320044
