25
Energy:   -468.70051982
O    0.19295817   0.25469289  -3.40044406
H   -0.69257836   0.29827239  -3.03967026
H    0.09483463   0.53153949  -4.31146523
O   -0.63008442  -1.60681996  -0.58595959
H   -0.89585666  -1.49540935   0.32682989
H   -1.32681859  -1.18830787  -1.09156910
O   -1.15180547  -0.71134483   1.99729500
H   -0.24638620  -0.59083326   2.28352002
H   -1.56554717  -1.19960026   2.70909293
O   -1.57540196   1.49775499   0.40294892
H   -2.08686089   2.18537923   0.82934604
H   -1.57826379   0.77348183   1.02877003
O    1.15937969   1.38704528   0.00478179
H    0.21121660   1.50074998   0.07027863
H    1.49502794   2.26628538  -0.16988631
O    3.06364936  -1.60170815   0.63258268
H    2.61290258  -1.19989132   1.37528210
H    3.70165469  -2.19380621   1.03083001
O    1.51510080  -0.06278945   2.33458683
H    1.47820796   0.57777430   1.62427080
H    1.89083645   0.41802091   3.07206630
O   -2.18445879   0.22661295  -1.98374919
H   -2.11436217   0.78986652  -1.21299389
H   -3.10919707   0.26743537  -2.22752059
K    1.72501308  -0.88856136  -1.54842462
