25
Energy:   -464.11858703
O    1.47430072   0.84249310  -2.26119424
H    0.84566658   0.53541245  -2.91445717
H    2.22083851   1.15266237  -2.77374493
O   -0.60692223  -0.64481650  -3.32420378
H   -1.43521270  -0.37283386  -2.92899220
H   -0.84386506  -0.92754507  -4.20746733
O   -0.92998706  -0.81137703   1.94895742
H   -0.09765220  -0.60567190   2.37455810
H   -1.37266919  -1.40061313   2.55974806
O   -1.85144423   1.54069569   0.78599053
H   -1.68635202   0.81384731   1.38654681
H   -2.35528558   2.16936187   1.30286051
O    0.91343136   1.33454731   0.41998064
H    0.05299175   1.75019987   0.47573437
H    1.21956589   1.53427558  -0.46467868
O    2.06668966  -2.17653725   0.87213392
H    2.76485097  -2.81196079   1.03037280
H    2.11945255  -1.57258435   1.61286924
O    1.64266299  -0.09606795   2.65865021
H    2.12722974   0.31339316   3.37542668
H    1.59404467   0.58130093   1.98408405
O   -2.42433939  -0.18447243  -1.27065065
H   -2.38302491   0.54081457  -0.64736603
H   -3.35435310  -0.40544464  -1.32042640
K    0.16253176  -1.11933223  -0.65618497
