25
Energy:   -462.99226155
O    0.65938867   0.26052004   0.75288693
H    1.08632756   1.02964101   1.13025673
H   -0.27336183   0.39890996   0.91737575
O   -1.49551503   1.53094084  -1.65350567
H   -2.19075735   2.06473614  -2.03812566
H   -1.88020110   1.17748418  -0.85143531
O    2.71376600   2.05615981  -1.23328872
H    2.60918833   2.29661238  -0.31270308
H    3.45332034   2.58287150  -1.53638281
O   -1.86093174  -2.39662944   0.01938085
H   -1.09815970  -2.54075885   0.57941423
H   -2.43688920  -3.13887059   0.20263726
O   -2.11641133   0.25544983   0.71607016
H   -2.17295225  -0.67424465   0.49538227
H   -2.80979124   0.39142500   1.36179990
O   -0.36353760  -2.04391969  -2.27382987
H   -0.45802732  -2.79378154  -2.86120603
H   -0.94152689  -2.24192960  -1.53697689
O    0.40643728  -2.40533402   1.48660241
H    0.69045552  -1.49866472   1.37034295
H    1.00539961  -2.76222994   2.14242348
O    2.13292985   2.52724584   1.46208426
H    1.72638291   3.36460178   1.68521305
H    2.82109270   2.41239515   2.11742619
K    0.84804429   0.29901599  -1.97031282
