25
Energy:   -464.65052609
O    1.76683392   0.25710973  -0.24312061
H    1.77747073  -0.55279129  -0.75319809
H    1.68956446   0.95167789  -0.89721261
O   -0.98876784  -0.27986556  -1.87743251
H   -1.68444690  -0.55161151  -2.47611158
H   -0.36209265  -1.00322486  -1.89359991
O    0.05071531  -2.37368535   1.21927977
H   -0.19159729  -3.17121941   1.68987076
H    0.67199214  -1.93255949   1.79863711
O   -3.20524528   0.37842890   2.08258686
H   -3.67172079  -0.25486529   2.62808747
H   -3.77241262   1.14942260   2.07155188
O   -0.62076566   2.85672171   0.12856671
H   -0.66213680   3.79657390   0.30519664
H   -0.15791463   2.78963456  -0.70659799
O    0.96251890  -2.15842191  -1.39217996
H    0.69201754  -2.46999536  -0.52847697
H    1.39803692  -2.91063125  -1.79310018
O    1.45404768  -0.33392304   2.43360286
H    2.03572863  -0.11726375   3.16225769
H    1.92764068  -0.04379413   1.65400890
O    0.65671420   1.97203943  -2.15111228
H    0.04023300   1.25831958  -2.31477888
H    0.87463121   2.30527780  -3.02156975
K   -0.81507164   0.29867284   0.86352503
