25
Energy:   -463.28414267
O   -1.16169248  -0.27383914  -0.09080556
H   -1.19999469   0.28095446   0.68827650
H   -1.51071717   0.27461550  -0.79338020
O    0.21993198  -0.59903873  -3.31964355
H   -0.46324475   0.05960094  -3.19436315
H    0.05425737  -0.95349369  -4.19322551
O   -1.03584753  -2.18174019   1.97337978
H   -1.36803072  -1.80614931   1.15801626
H   -1.70081360  -2.81979210   2.23211078
O   -0.61802642   0.52962936   2.54433655
H   -1.05343103   0.90976636   3.30732445
H   -0.72798439  -0.41520420   2.65125074
O    1.10653110   2.18622636  -1.28299013
H    1.60398296   2.93613467  -1.60919716
H    1.29072592   2.16621904  -0.34389279
O    1.45747352  -2.58591582   0.85421547
H    0.64100910  -2.57446048   1.35370170
H    1.93183769  -3.34771859   1.18718246
O    1.70637448   1.15573076   1.21773980
H    0.94583952   0.99212420   1.77545954
H    2.40923923   1.37617058   1.82898383
O   -1.37894215   1.42439275  -2.27516777
H   -0.59810494   1.90649174  -2.00294421
H   -1.96538323   2.09521827  -2.62489884
K    1.41394497  -0.61789654  -0.94137906
