25
Energy:   -465.86290184
O    1.28431128   1.30016946  -1.71880831
H    0.41402239   1.65259630  -1.53273191
H    1.51283561   1.66424226  -2.57406235
O   -2.19155548  -1.99503856  -1.95994684
H   -2.70013411  -1.93722620  -1.15109745
H   -2.77094468  -2.44307602  -2.57622798
O   -2.29405903  -1.42851512   0.85164723
H   -2.32302669  -0.55786813   1.24834174
H   -2.73236045  -1.99590036   1.48583782
O   -1.76818979   1.14336567   1.76112517
H   -2.01528218   1.72792501   2.47769169
H   -0.85892259   0.90818835   1.94594032
O    3.01500032   0.86088349   0.37610691
H    3.74762100   1.46518370   0.49577332
H    2.55969446   1.18649654  -0.40036238
O    2.54918395  -1.76544721  -0.44887888
H    3.26641502  -2.38811838  -0.56758885
H    2.97509419  -0.96384934  -0.14511390
O    0.76970086   0.05168738   1.74278629
H    1.58435788   0.43706893   1.42022334
H    1.03518074  -0.47398770   2.49738419
O   -1.34604353   1.43989647  -0.93764834
H   -1.59706533   1.52972430  -0.01832747
H   -2.11746344   1.72702695  -1.42621691
K   -0.00946383  -1.04998358  -0.74862913
