25
Energy:   -467.59512444
O    2.79435334   1.13965000  -0.56351311
H    2.15955638   1.81891195  -0.33576793
H    3.59749822   1.61970664  -0.76534413
O    0.62562747   2.63472701   0.36290684
H   -0.18334910   2.49244949  -0.12856633
H    0.59718035   3.55917711   0.60951306
O   -2.11293606  -0.29235407   0.95223873
H   -2.74746110  -0.34250321   1.66714774
H   -1.27652834  -0.12162056   1.38525610
O   -0.96205772  -2.52864247  -0.19716906
H   -1.50466032  -1.84179268   0.19019591
H   -1.55548195  -3.00390949  -0.77871939
O   -0.06614169   0.08311472  -2.37146866
H   -0.68694795   0.69830297  -1.98111645
H   -0.12522037   0.24728156  -3.31263326
O    1.55237060  -3.48355428   0.77127133
H    0.60290927  -3.58800055   0.70925510
H    1.85608876  -4.29117537   1.18568091
O    0.48481280   0.21222580   1.66178921
H    0.59851902   1.11563226   1.36656129
H    0.89507599   0.18882626   2.52629394
O   -1.69157630   1.73866982  -0.87406063
H   -2.00931183   1.06840658  -0.26906214
H   -2.48183404   2.19451290  -1.16377020
K    1.46475216  -1.18114896  -0.57081031
