25
Energy:   -463.04718985
O   -2.12540656  -0.13671727   1.19421028
H   -2.14084842   0.44040539   0.43071645
H   -3.02561840  -0.12856389   1.51945482
O   -0.87203972  -2.28614887   0.00649322
H   -1.39312943  -3.08277694   0.10689781
H   -1.36048627  -1.61772774   0.48697735
O    3.56524209   2.18784142  -0.16272468
H    4.23670161   2.77471536  -0.51050757
H    2.86940364   2.20313686  -0.81984472
O    1.73527481  -2.05407031   0.89035112
H    2.14660413  -2.91832661   0.90040509
H    0.83951690  -2.21802709   0.59544812
O    0.93988630   1.17230843  -0.86088336
H    0.75380168   0.46030723  -1.47297702
H    0.11083933   1.64430687  -0.78258621
O   -1.90146356   1.31751388  -1.10737269
H   -1.56441211   0.64084685  -1.69452676
H   -2.46681818   1.85593806  -1.66118259
O   -0.49316283  -0.78003429  -2.28175898
H   -0.46293750  -1.28272866  -3.09577166
H   -0.61929247  -1.43788858  -1.59798205
O   -0.03765570   0.87172870   2.69701503
H   -0.80569085   0.52709262   2.24140573
H   -0.38660051   1.24725821   3.50537568
K    2.27363666   0.49624656   1.43078674
