25
Energy:   -463.81499793
O    1.45217879  -1.72614714  -0.93455127
H    1.94386223  -1.19404303  -0.30897597
H    2.10030443  -2.32960485  -1.29787454
O   -2.55648745  -0.96298847  -3.15931422
H   -2.99038437  -0.22028457  -2.73936633
H   -2.95836215  -1.01678918  -4.02639788
O   -1.22924381  -2.05178293   1.68291522
H   -0.64266952  -1.43802588   2.12502916
H   -1.55478999  -2.61862579   2.38215817
O   -0.48909299   1.03321743   0.14447880
H    0.26095070   1.54950786  -0.15066610
H   -0.27760800   0.79741590   1.04775261
O    0.48153976  -0.04036575   2.50799005
H    0.66970640   0.27106278   3.39333599
H    1.33942863  -0.10221443   2.08795042
O    2.69940213  -0.00415108   0.85155144
H    3.63292981  -0.00856509   1.06306606
H    2.56096262   0.82502970   0.39381181
O    1.92865753   2.30483714  -0.49289148
H    2.16978183   2.40780515  -1.41348287
H    2.03866003   3.17818431  -0.11686487
O   -3.02689529   0.72004843  -0.93968116
H   -2.28022405   1.14729919  -0.51995424
H   -3.79256869   1.17130917  -0.58423799
K   -1.21372430  -1.46073137  -0.91413142
