25
Energy:   -464.77955337
O   -1.69863501  -1.99032234  -3.68764631
H   -2.58196765  -1.98243800  -4.05628317
H   -1.19394272  -2.54161427  -4.28563857
O   -2.53567327  -1.06124163   0.71470363
H   -2.00193117  -0.92901383   1.49820030
H   -3.39275993  -1.32454788   1.04982169
O    0.84340111  -1.59422881   0.55714381
H    1.63502787  -1.05868191   0.60956949
H    0.42455073  -1.48764202   1.41121375
O   -0.65104021  -0.62609020   2.69549232
H   -0.61809738  -0.76216997   3.64239723
H   -0.24827765   0.23195740   2.56219385
O    1.31616242   0.75801531  -2.02987328
H    0.71176366   1.40055339  -1.65828372
H    1.65921124   1.17903013  -2.81809652
O    2.67594420   0.48319750   0.38351457
H    2.41528154   0.57651373  -0.53277082
H    3.63181551   0.43978770   0.35787295
O    0.64116566   1.67106748   1.82778841
H    1.44550995   1.32625546   1.44001685
H    0.93052690   2.40937541   2.36388851
O   -0.75936088   1.77048503  -0.55261859
H   -0.36964705   1.81776138   0.32037621
H   -1.42784314   2.45558357  -0.55443754
K   -0.85664258  -0.94741537  -1.36329612
