25
Energy:   -462.94728191
O   -2.53414051  -0.20068736  -3.51958241
H   -2.70636984  -0.96827432  -4.06490722
H   -3.22373214   0.42020639  -3.75449981
O    3.06221641   0.67420191   0.57711969
H    3.06115397   0.56689316   1.52828506
H    3.96984437   0.88777619   0.36071877
O   -0.07789974  -2.21348329   0.60657509
H   -0.05855615  -3.16849254   0.66834082
H   -0.89553482  -2.01914016   0.14838793
O    0.22028613   0.04511257   2.22147594
H    0.10694094  -0.88752729   2.03826128
H    1.02739252   0.09267192   2.73387151
O   -1.57003023   1.51313369   0.72041070
H   -1.15270500   1.14866065   1.50094315
H   -2.06642494   2.26539711   1.04278297
O    2.76889628   0.30042784   3.33054565
H    3.19982020  -0.43041479   3.77372223
H    2.87626200   1.04042244   3.92813451
O   -1.91447537  -0.76512567  -0.85724114
H   -2.19717034  -0.00079820  -0.35512669
H   -2.26810150  -0.61996455  -1.73479948
O    0.09138109   0.66607941  -3.11652989
H   -0.79609317   0.39575075  -3.35220701
H    0.46600879   0.99747497  -3.93265667
K    0.66077190   0.28083451  -0.53208002
