25
Energy:   -463.72295248
O   -0.97579092  -0.96281914   0.36339916
H   -1.07914590  -0.33320895   1.07694005
H   -0.17373384  -1.43916312   0.57795150
O   -2.55833862  -1.22565943  -1.92558947
H   -2.30212578  -1.42243405  -1.02455308
H   -3.32257022  -1.77974897  -2.08422963
O    1.56833531  -1.82638119   1.04853990
H    1.67428440  -1.29326372   1.83644370
H    1.86135712  -2.69975107   1.30853052
O   -0.73611682   0.98849401   2.31856428
H   -1.31337226   1.17817045   3.05817962
H    0.07051540   0.66573057   2.72031055
O   -0.58045166   2.37344993  -0.08494413
H   -0.67661431   3.31690717   0.04495207
H   -0.62700270   2.00382512   0.79678278
O    1.87525366  -0.62619262  -1.43833332
H    1.88664192  -1.06658479  -0.58853518
H    2.72349898  -0.83632651  -1.82891681
O    1.64243966  -0.13104402   3.27062301
H    2.38595073   0.47165569   3.28389722
H    1.63894849  -0.52707456   4.14204683
O   -0.70675717   1.44986637  -4.49570930
H   -0.19047463   2.09222381  -4.98259851
H   -1.38550623   1.17168099  -5.11064382
K   -0.49835205   0.49177016  -1.99424230
