25
Energy:   -465.93879596
O   -0.13312252   0.40943032   2.26697044
H    0.02319424   1.14852059   1.67914182
H   -0.23311124   0.80752321   3.13169939
O   -1.98858373  -0.92238498   0.72058910
H   -1.40974934  -0.52353452   1.37028204
H   -2.77393364  -1.16086899   1.21311598
O   -0.37750078  -2.79251776  -0.54787926
H   -1.01632500  -2.24925240  -0.08636197
H   -0.82493173  -3.62811711  -0.68133754
O    2.54929750   1.15160093  -0.64477758
H    3.27145159   1.77963128  -0.66219020
H    1.79663571   1.65968399  -0.34214961
O    0.26771791  -0.26857078  -2.84552623
H   -0.46483251   0.17620183  -2.41917067
H    0.14342829  -0.09525867  -3.77866440
O    0.18624591   2.28415383   0.26917619
H    0.03630559   3.22930190   0.29026840
H   -0.47729298   1.94930191  -0.33400056
O   -1.66922055   0.95234194  -1.27720258
H   -1.91023863   0.27724926  -0.64285881
H   -2.50452691   1.26091688  -1.62831032
O    1.90407379  -1.37234273   1.65287451
H    2.30309312  -1.75321794   2.43514652
H    1.24513659  -0.76576807   1.99066261
K    1.86494285  -1.40907178  -1.02414357
