25
Energy:   -468.13457275
O    0.19049507   1.08857748  -3.19631154
H   -0.64272416   1.45870436  -2.90479196
H    0.37586855   1.53567454  -4.02212795
O   -1.72965240  -1.68701317   0.59798057
H   -2.39302618  -2.26585857   0.97362014
H   -1.31760780  -1.27098579   1.35519409
O   -0.31809129  -0.26770546   2.49967397
H    0.57813085  -0.50380571   2.26035331
H   -0.35008225  -0.37927919   3.44981066
O   -0.93953951   1.90610203   0.88382862
H   -1.06244512   2.71874910   1.37447186
H   -0.83247276   1.23352340   1.55644036
O    1.17737393   0.86664853  -0.53699586
H    0.55041092   1.41669362  -0.06731550
H    1.22694143   1.25236726  -1.41163635
O    1.56274226  -2.61080643  -0.62689618
H    2.07231515  -3.42090218  -0.64456559
H    1.87186568  -2.14980245   0.15294347
O    2.15866211  -0.80591096   1.39697358
H    2.03376220  -0.13619853   0.72457703
H    3.03629399  -0.63977787   1.74105776
O   -2.07035430   1.11442317  -1.52774369
H   -1.83486096   1.45402938  -0.66435365
H   -3.00202245   1.31445583  -1.61837068
K   -0.40524743  -1.13459310  -1.65547434
