25
Energy:   -464.48483987
O   -1.55411368  -0.89751902  -0.32708854
H   -1.72516353  -0.19822087  -0.95792599
H   -1.44987766  -1.68384425  -0.86286773
O    0.19818355  -2.58830975  -1.84465731
H    0.36488667  -1.97346298  -2.55908390
H    0.18464830  -3.44772743  -2.26590534
O    0.87956471  -0.98427467   2.62060280
H    0.92916516  -1.60177376   3.35030583
H    0.00233912  -0.60669398   2.68494508
O    0.90464616  -0.02346734  -2.79123923
H    1.34983897   0.31456691  -3.56826437
H    0.13050082   0.53166409  -2.69764477
O   -1.29653800   1.37897409  -1.92499166
H   -0.90432936   1.78530568  -1.15214053
H   -1.88832216   2.04615934  -2.27268002
O    2.56732187   1.02631786   1.58015755
H    3.35208758   1.45014500   1.92764163
H    2.23160368   0.50694004   2.31075445
O   -1.55144744   0.22960028   2.19737452
H   -2.36817578   0.35796132   2.67977489
H   -1.80995149  -0.25224857   1.41173516
O    0.02432693   1.76155830   0.47339609
H    0.82300402   2.03790605   0.92281647
H   -0.56610753   1.49235887   1.17706552
K    1.21601625  -0.68682581  -0.11629826
