22
Energy:   -370.50333276
Na   0.31313090   1.35531614   0.82436926
O    2.14420886   2.74428253   0.36059095
H    2.44778244   3.29953479  -0.35758024
H    2.82221146   2.82721107   1.03116323
O   -2.93161224  -0.06093259  -1.88810648
H   -3.71916739  -0.59675078  -1.79383248
H   -3.10552031   0.48899359  -2.65202338
O   -1.98596346   1.55694018   0.32130703
H   -2.37215378   1.07511185  -0.41008229
H   -2.65117554   2.20183915   0.56178583
C    2.21764118  -2.26098677   3.77862205
H    3.17488659  -2.57852087   3.42119584
H    1.51406323  -3.06004500   3.67193040
H    2.29454619  -1.98888824   4.81058479
C    1.74186310  -1.04554484   2.96134846
N    1.38762470  -0.14059307   2.35285112
C   -0.21479998  -1.63123699  -3.03071186
H   -1.17601817  -2.06702668  -2.85450992
H    0.49655732  -2.40522243  -3.23025242
H   -0.27062974  -0.97255791  -3.87209405
C    0.22516684  -0.83806925  -1.78615807
N    0.55274213  -0.24751982  -0.85953120
