22
Energy:   -391.92801303
Na  -0.17508725   0.07497925   0.40889865
O    0.47078323   2.29405795   0.04799239
H   -0.01508818   2.97261023  -0.42075874
H    1.32834631   2.68504872   0.21515584
O   -0.65784685  -2.21376342   0.39102881
H   -0.07827242  -2.93275413   0.64277806
H   -1.42138732  -2.64437021   0.00656088
O   -1.08067328   0.46217874   2.51764770
H   -1.12576506   1.29204445   2.99253874
H   -1.49270574  -0.17248774   3.10387254
C    4.77381295  -1.14008743   0.72991051
H    5.07859245  -1.15747145   1.75543839
H    5.35123999  -0.41270932   0.19849901
H    4.92897772  -2.10545525   0.29529809
C    3.28077106  -0.77253951   0.64426914
N    2.16913351  -0.49888337   0.58050525
C   -3.69927650   0.68027473  -3.23594715
H   -4.49669274  -0.01713578  -3.08546092
H   -3.24824968   0.50583091  -4.19043301
H   -4.08609965   1.67729734  -3.20112106
C   -2.64399662   0.50012564  -2.12891025
N   -1.85829278   0.36599646  -1.30467096
