22
Energy:   -370.84146170
Na   1.59659142  -0.70915539   1.00227366
O    0.02088360   1.12872367  -1.97054855
H   -0.93011070   1.23067360  -2.00859997
H    0.34015601   1.55729939  -2.76466430
O    0.80083772  -1.35128487  -1.04824773
H    0.63338808  -2.08779971  -1.63624293
H    0.47759276  -0.58613029  -1.52393987
O    1.03868378   1.47085050   0.57040429
H    0.65676551   1.53980824  -0.30459005
H    1.00848736   2.36281333   0.91641346
C    3.85544461  -3.09580731   4.82968213
H    3.12299278  -3.60830180   5.41769904
H    4.36775379  -2.38228832   5.44068871
H    4.55854004  -3.80235835   4.44065572
C    3.16035242  -2.36822573   3.66388975
N    2.64282469  -1.82650816   2.79590433
C   -5.34196764   1.94861116  -2.61233550
H   -5.41982325   2.48214243  -3.53655575
H   -5.75342121   2.54160923  -1.82242517
H   -5.88199795   1.02778816  -2.68548835
C   -3.86048557   1.65254729  -2.31374368
N   -2.75745483   1.43211427  -2.09142850
