22
Energy:   -382.71624124
Na   0.26359297  -0.11621453   0.52585527
O   -0.08008103  -0.51640268   2.77896125
H    0.54328605  -0.42078474   3.49903245
H   -0.88637190  -0.81740141   3.19792025
O    1.68086168   1.63334421   0.10870377
H    1.44489421   2.52551726   0.36282670
H    2.52688739   1.72448983  -0.32966231
O    0.98394708   4.15945010   0.83494129
H    1.28827234   4.64260582   1.60317207
H    0.59928828   4.82785444   0.26792711
C   -4.33401030  -0.05437695  -1.58288724
H   -4.96971340   0.65585223  -1.09672239
H   -4.77415072  -1.02772258  -1.52145602
H   -4.21439887   0.21876319  -2.61049935
C   -2.95774844  -0.06880362  -0.89202171
N   -1.93305893  -0.07954493  -0.37764093
C    2.22894842  -4.23283727  -1.66768849
H    2.45304626  -4.96196899  -0.91732372
H    3.12367066  -3.97887259  -2.19671886
H    1.51157541  -4.63459191  -2.35242805
C    1.65116370  -2.97072335  -1.00073027
N    1.22097671  -2.03102217  -0.50414955
