22
Energy:   -377.32870357
Na  -0.07997791  -0.73794975  -0.30451865
O    1.25982893   1.25745039  -0.24166642
H    1.64551332   1.71933292   0.50274202
H    1.35267591   1.86511256  -0.97539524
O   -2.12507898  -1.90148112  -0.40402101
H   -2.81825847  -1.80242563  -1.05664805
H   -2.45325713  -2.57233756   0.19471315
O    1.75579525  -1.87383726  -1.21380397
H    2.47351306  -2.37039902  -0.82068896
H    1.84583952  -2.02584684  -2.15455737
C   -2.10569887   3.09645461  -2.75891991
H   -1.31701493   3.45221122  -3.38845550
H   -2.24347095   3.77407703  -1.94237487
H   -3.01153695   3.03079582  -3.32464544
C   -1.73879501   1.70365839  -2.21385088
N   -1.46561841   0.66665829  -1.80802222
C    1.51035994  -0.66436963   4.45914034
H    2.24109266  -1.37283550   4.78930088
H    0.67367574  -0.67791187   5.12598008
H    1.94208952   0.31460614   4.44841181
C    1.04148219  -1.03421163   3.03964375
N    0.69238139  -1.30957581   1.98276402
