22
Energy:   -368.79466733
Na  -0.95103367  -0.91445282  -0.98677273
O    0.85944513  -0.15720817   0.16165613
H    1.09952534   0.54794357   0.76278371
H    1.66540492  -0.66109804   0.04871516
O    0.37787551  -2.60231953  -1.80910060
H    0.39567258  -3.37355228  -2.37577084
H    1.27004044  -2.53364916  -1.46916243
O    2.81985421  -2.02193648  -0.58738652
H    3.57459497  -1.71956985  -1.09253270
H    3.19352828  -2.59278822   0.08397615
C    2.33912165   3.85016641   3.61515013
H    2.68750951   3.41142910   4.52676170
H    1.50931448   4.49291563   3.82297842
H    3.12787126   4.41901939   3.16885490
C    1.89679497   2.73781674   2.64632335
N    1.56746266   1.90962186   1.92498778
C   -5.82193303   0.12460616  -1.79303030
H   -5.90710644   1.07927096  -2.26869907
H   -6.33969520   0.14510531  -0.85686727
H   -6.25170744  -0.62684712  -2.42192697
C   -4.33560002  -0.19737057  -1.55065627
N   -3.22895754  -0.43709687  -1.37019780
