22
Energy:   -385.00937028
Na   0.01616819  -0.30736080   0.05886864
O    0.23632078  -2.32644797  -1.06281489
H    0.84389224  -3.06610199  -1.06198130
H   -0.50623703  -2.62642363  -1.58708043
O   -2.39502744  -1.62353367  -2.90837544
H   -3.27438265  -1.97727154  -2.77482479
H   -2.28840078  -1.59820699  -3.85928089
O   -1.91087026   0.33142359  -1.00917469
H   -2.56425101   1.03070659  -0.99104378
H   -2.16475995  -0.21501814  -1.75293090
C    0.29022219  -0.48602914   5.11384378
H   -0.70621882  -0.53286622   5.50089908
H    0.76564822   0.40787781   5.45996449
H    0.84388613  -1.33764416   5.45015790
C    0.24323197  -0.47948750   3.57457476
N    0.20824562  -0.47461696   2.42851901
C    3.08811895   3.58884464  -0.98745085
H    4.08721096   3.24930475  -1.16473029
H    3.08004617   4.24971594  -0.14597415
H    2.72903206   4.10746717  -1.85173458
C    2.17860714   2.37993669  -0.69947539
N    1.50143426   1.47984978  -0.48506457
