22
Energy:   -370.88370546
Na  -0.48485114   0.17092738  -0.70033063
O   -2.57362347   1.08235164  -0.45643826
H   -3.43803671   0.68514214  -0.35039011
H   -2.72442246   2.02025106  -0.33881098
O   -0.14801242  -0.30134847   1.78663208
H   -0.44902452   0.50325378   2.20881542
H    0.69744345  -0.48535234   2.19599599
O    0.35202047  -0.04978491  -2.95206766
H    0.51150089  -0.95680751  -3.21304245
H    0.53902996   0.46266973  -3.73861043
C    2.90285664   3.73229409   0.60375001
H    3.85338312   3.28439673   0.80570929
H    2.59927789   4.31948636   1.44514426
H    2.98038142   4.35957653  -0.25961882
C    1.86015595   2.62899380   0.34470614
N    1.08381790   1.80753657   0.15183621
C   -0.92423222  -4.42613591   1.00433257
H   -0.02824240  -4.57157793   1.57085622
H   -1.12916511  -5.30485083   0.42921373
H   -1.74037670  -4.23715758   1.66998599
C   -0.74419933  -3.22410088   0.05865823
N   -0.61015665  -2.32913117  -0.64543930
