22
Energy:   -382.93030653
Na  -0.15786952  -0.04007113   0.09867631
O    1.02965868   0.15300192   2.06547190
H    1.72669257  -0.26819854   2.56842894
H    0.79688285   0.92647115   2.57907935
O    0.28502096   2.45600819   3.40186505
H    0.79538896   3.26566260   3.38716464
H   -0.06401904   2.40846545   4.29188899
O   -1.90918339   1.48186250   0.53002172
H   -1.83156149   2.26035221   1.08152916
H   -2.84160533   1.42826996   0.32038149
C    2.24145592   1.37872617  -4.12296263
H    1.87961861   0.80316086  -4.94921835
H    3.29943676   1.24683398  -4.03251876
H    2.02371878   2.41348858  -4.28653643
C    1.55290713   0.90765094  -2.82851731
N    1.04025126   0.55691401  -1.86474393
C   -1.70166877  -4.77708087  -0.84235089
H   -0.94177255  -5.31081815  -1.37393572
H   -2.59913323  -4.75977934  -1.42472301
H   -1.89190790  -5.26317491   0.09168377
C   -1.22987034  -3.33418481  -0.58339683
N   -0.87859497  -2.25988310  -0.39059376
