22
Energy:   -370.87843134
Na   0.11685479   0.38820943   0.16505013
O   -0.99383953  -1.28073956  -1.53974044
H   -1.29031536  -0.92555676  -2.37770172
H   -1.21624410  -2.21082217  -1.58114570
O    0.64410069   0.94911236   2.46751577
H    0.03865873   1.32963225   3.10381483
H    1.23959685   0.41458431   2.99277374
O    1.59311802   2.12988374  -0.44597922
H    1.72037063   2.38576353  -1.35952405
H    1.58181629   2.95704670   0.03558650
C   -4.66787656   1.46728065  -0.43633046
H   -4.81497764   1.98412888  -1.36160305
H   -5.17979742   1.98586818   0.34718922
H   -5.05449102   0.47290568  -0.51785822
C   -3.16293912   1.40818371  -0.11497266
N   -2.04244478   1.36418336   0.12429283
C    3.81524582  -3.07011807  -0.05828362
H    4.63776357  -2.60759570   0.44613464
H    4.03783097  -3.15327813  -1.10156659
H    3.64929643  -4.04520716   0.34983542
C    2.54991971  -2.21271530   0.12989272
N    1.60782691  -1.57433997   0.26999857
