22
Energy:   -383.77711036
Na   0.12838108   0.06794244  -0.17459870
O    1.72577221  -1.06264819   1.05041586
H    2.13890662  -1.06540729   1.91386487
H    1.99337011  -1.89164023   0.65368494
O    0.31741573  -1.26444438  -2.08344361
H    1.03760493  -1.88093296  -2.21573570
H   -0.21568971  -1.34488068  -2.87436740
O    2.30426732  -3.40775384  -0.28185332
H    1.95048129  -4.24376855   0.02170342
H    3.16834841  -3.62555081  -0.63136757
C   -4.58396405  -0.25977785   1.65201778
H   -5.00371088  -1.17915280   1.30064549
H   -5.18224292   0.55897717   1.31054788
H   -4.56188809  -0.26360430   2.72178275
C   -3.15053838  -0.10945288   1.10952976
N   -2.08328781   0.00247089   0.70562278
C    1.03406156   5.01796976  -0.44538727
H    0.22899058   5.58790149  -0.86004220
H    1.92658971   5.20088910  -1.00648719
H    1.18777085   5.30669606   0.57339125
C    0.68696154   3.51887429  -0.50730932
N    0.42852979   2.40272957  -0.55341310
