22
Energy:   -373.47471711
Na  -0.24789214  -0.26005079   0.29775548
O    1.47726833  -1.89543506   0.40789488
H    2.41215088  -1.87974526   0.20300398
H    1.31108456  -2.79097573   0.70221053
O   -1.29786094   0.27790351   2.34335879
H   -1.44883784  -0.04163868   3.23292644
H   -1.78915999   1.09805425   2.29634966
O   -0.31665180   1.49284437  -1.38355717
H    0.36524598   1.94812210  -1.87748981
H   -1.13155056   1.91676917  -1.65274039
C   -2.71494987  -3.33218893  -3.12911328
H   -2.73931870  -4.33387392  -2.75370213
H   -2.09813642  -3.29356092  -4.00258230
H   -3.70758569  -3.02084783  -3.37939301
C   -2.13897268  -2.39420360  -2.05206463
N   -1.71013148  -1.69583089  -1.25015295
C    2.96656100   3.41468257   1.96983509
H    2.84032448   3.44972089   3.03178464
H    2.71337009   4.36530984   1.54900111
H    3.98528223   3.18246614   1.73922353
C    2.04645421   2.33027708   1.37901514
N    1.36139287   1.52288790   0.93912284
