22
Energy:   -384.05501443
Na  -0.00235267   0.29772960  -0.02062433
O    2.41680387  -2.36737393  -2.05509961
H    3.18675950  -2.86110866  -1.77291849
H    2.26051214  -2.65915450  -2.95324707
O    0.15818176  -1.92557242  -0.58489524
H   -0.28803719  -2.75053126  -0.39367965
H    0.91035879  -2.17807669  -1.12034192
O    1.99313680   0.84350919  -1.10994104
H    2.62922183   0.15233813  -1.29408839
H    2.37419899   1.63038154  -1.49962729
C    0.29098515   0.23803343   5.03374883
H    1.31120722   0.38619202   5.32027308
H   -0.06223422  -0.68751347   5.43809782
H   -0.30564255   1.04252673   5.41021265
C    0.18969760   0.19902242   3.49757860
N    0.11428441   0.16997696   2.35383004
C   -4.08065318   2.61053469  -1.91827288
H   -4.05223311   2.54994648  -2.98617809
H   -4.05223306   3.63726177  -1.61840143
H   -4.98179852   2.15892646  -1.55926568
C   -2.86548273   1.86999388  -1.32957933
N   -1.96073310   1.31862758  -0.89127023
