61
Energy:   -592.18866435
C    2.92314544  -3.80380760   0.84914448
H    3.44397764  -3.22114587   1.57999283
H    3.59754146  -4.50713787   0.40708606
H    2.11796151  -4.32874389   1.31927192
C    2.36177226  -2.87461761  -0.24313118
N    1.94380441  -2.18279342  -1.05638005
C   -3.36798883   1.46770766  -1.99047697
H   -2.41765828   1.38633071  -2.47539946
H   -3.35812416   2.30529149  -1.32470291
H   -4.13297306   1.60556738  -2.72579521
C   -3.64894722   0.18091779  -1.19245803
N   -3.85813351  -0.77715576  -0.59829666
C   -0.49569042   4.78830289  -1.94044009
H   -1.29489695   4.87443852  -1.23421792
H   -0.82624002   5.13508224  -2.89719509
H    0.33410674   5.37966505  -1.61390287
C   -0.06397297   3.31410686  -2.04982978
N    0.25746029   2.21650090  -2.13127537
C    3.95254298   0.11345257  -5.88207302
H    4.68804893   0.89044042  -5.86720524
H    3.27000889   0.28380373  -6.68831541
H    4.43512820  -0.83195743  -6.01701943
C    3.18173975   0.11067621  -4.54886086
N    2.60784171   0.10860909  -3.55622380
C   -1.53978548  -2.45112729   1.47064885
H   -1.10202255  -3.37091861   1.14316187
H   -2.59360581  -2.47219357   1.28648045
H   -1.36327684  -2.32527361   2.51845830
C   -0.90716269  -1.27812879   0.69898641
N   -0.43614627  -0.40477808   0.12444864
C   -4.43395887   1.01478523   2.38141963
H   -4.22970389   1.79100355   1.67384264
H   -5.09231463   1.38655089   3.13855705
H   -4.89548425   0.18892573   1.88157015
C   -3.11613929   0.55116593   3.02950042
N   -2.13496271   0.20598029   3.51202602
C    0.32800811   2.26029191   2.25520774
H    0.52521368   1.21607530   2.13022051
H    0.12865119   2.46468695   3.28641024
H    1.17993446   2.82462912   1.93796320
C   -0.89503486   2.65678418   1.40752869
N   -1.80564594   2.95199069   0.77639310
C    4.45975538   0.39870335   1.83272399
H    4.38032349   1.14221402   2.59808838
H    5.44045826   0.42954710   1.40591068
H    4.28507096  -0.56854349   2.25559276
C    3.41401199   0.67632475   0.73684666
N    2.63540851   0.88302650  -0.07908383
C    0.44963383  -0.93736176   5.25388041
H    1.10452253  -1.20961932   6.05506502
H   -0.44228237  -1.52609976   5.30653160
H    0.19798011   0.09941111   5.33555982
C    1.15297071  -1.19035012   3.90743541
N    1.67663699  -1.37871145   2.90494592
C   -2.55201966  -2.98579475  -3.12058656
H   -3.18463564  -2.80976993  -3.96540161
H   -3.13880642  -2.96918081  -2.22598923
H   -2.08112942  -3.94139134  -3.22056971
C   -1.47471929  -1.88770387  -3.04833470
N   -0.67262020  -1.07012530  -2.99453991
Na   1.08242211   0.00144116  -1.71319497
