61
Energy:   -589.02863012
C    2.82191871   1.44138620  -0.56815955
H    2.55767925   2.08759727  -1.37901647
H    3.52947399   0.71408058  -0.90770507
H    3.25516858   2.01890708   0.22156400
C    1.56031717   0.72690213  -0.04905065
N    0.62099748   0.19493626   0.33744952
C    2.91301101  -1.69877615   2.47429072
H    2.31920382  -2.06634286   1.66361945
H    3.22329637  -2.51770798   3.08908560
H    3.77499962  -1.19741346   2.08633430
C    2.08044981  -0.71269091   3.31457505
N    1.46057015   0.02149436   3.94020492
C   -0.65028477   3.96351753  -3.23634539
H   -0.54892396   5.01529879  -3.06787477
H   -1.45580328   3.78753419  -3.91830498
H    0.25833647   3.57950696  -3.65088419
C   -0.94455995   3.25571010  -1.90067673
N   -1.16366120   2.72871530  -0.90621070
C   -6.47471027   2.47631576   1.25719059
H   -6.57053203   3.15085595   2.08224447
H   -7.09806345   1.62213228   1.42059342
H   -6.77473285   2.96972303   0.35639383
C   -5.00782509   2.02472938   1.13102556
N   -3.91566240   1.68850279   1.03708996
C   -0.54497776  -3.08979355   0.23399180
H   -1.56749276  -2.77583462   0.26215314
H    0.03931644  -2.45956920   0.87142151
H   -0.47347833  -4.10273563   0.57123841
C   -0.01717221  -2.99083213  -1.20934737
N    0.37580302  -2.91715085  -2.28397898
C   -2.09813900  -0.82826796  -3.86993272
H   -3.05759016  -1.09889307  -4.25866875
H   -1.40886492  -1.63071951  -4.03078002
H   -1.74580510   0.05004433  -4.36925970
C   -2.21638359  -0.54795237  -2.36028330
N   -2.30442206  -0.33924468  -1.23628068
C    0.66958847   3.38968742   4.44096166
H    0.03870405   3.91757137   5.12523029
H    1.40112616   4.06006674   4.04053281
H    1.16161971   2.58987631   4.95390078
C   -0.18343571   2.81621312   3.29419360
N   -0.81855098   2.38923543   2.44037265
C    2.54655493  -1.03513825  -4.24837837
H    2.83244409  -0.82329999  -5.25748298
H    2.06883645  -1.99165061  -4.20632754
H    3.41647977  -1.04324127  -3.62543037
C    1.57060252   0.04829998  -3.75312238
N    0.84396160   0.85496900  -3.38438178
C    3.61683878  -4.40587085  -2.02773291
H    4.45910340  -4.46147525  -2.68530317
H    2.71649118  -4.54547161  -2.58878987
H    3.69492784  -5.16992247  -1.28273203
C    3.58804493  -3.02525571  -1.34606382
N    3.56660660  -1.99732498  -0.83853020
C   -1.67105243  -0.87363921   5.04451395
H   -0.95695589  -0.15075514   5.37978238
H   -1.34616144  -1.85332814   5.32656810
H   -2.62141598  -0.67037973   5.49216762
C   -1.79860496  -0.79657378   3.51174154
N   -1.89357362  -0.73919505   2.37052280
Na  -1.65363623   0.97263736   0.67608101
