61
Energy:   -590.41150628
C   -1.49002943  -2.92349985  -2.72727252
H   -2.55743206  -2.86269565  -2.68420691
H   -1.12899095  -3.46399451  -1.87732202
H   -1.19751442  -3.43052997  -3.62295914
C   -0.89439496  -1.50335732  -2.72342895
N   -0.45091803  -0.44599665  -2.72056723
C    0.27385505   4.03175073   2.34905175
H    0.77154762   4.97286786   2.45629363
H    0.26961149   3.52132329   3.28944790
H   -0.73348441   4.19558096   2.02760817
C    1.01347444   3.17608492   1.30387273
N    1.56415470   2.53900284   0.52568944
C   -2.97616116   0.25213199   1.76440415
H   -3.13217517   0.91657613   2.58846349
H   -2.47417376  -0.62869159   2.10654091
H   -3.92062378  -0.01769049   1.34003959
C   -2.11478252   0.95190055   0.69671936
N   -1.47344697   1.47291006  -0.09822049
C    3.64744036   1.46309799   3.16449513
H    2.71349561   1.69339325   3.63312236
H    3.83449762   2.16438054   2.37829448
H    4.43341918   1.52065247   3.88825190
C    3.59117796   0.03948438   2.57989370
N    3.54928805  -1.02046066   2.14463136
C    1.55224159  -3.49367911   0.55007319
H    1.88960501  -3.89624262  -0.38214392
H    0.73918401  -4.08293957   0.91967916
H    2.35511639  -3.51030272   1.25719043
C    1.08134519  -2.04226586   0.34209203
N    0.73074142  -0.96162272   0.18724061
C    5.25639283  -0.61110259  -0.86530369
H    5.06951151  -1.42642833  -0.19805599
H    5.81064908   0.14817964  -0.35423659
H    5.82000800  -0.95970830  -1.70536982
C    3.91646065  -0.02870919  -1.35212981
N    2.91882023   0.40490918  -1.71459398
C    1.10251244   4.58306174  -4.66595381
H    1.10029495   4.07869169  -5.60962012
H    2.07755472   4.98091740  -4.47647421
H    0.38957688   5.38069131  -4.68617854
C    0.72846556   3.58837073  -3.55137822
N    0.44997066   2.84777807  -2.72152603
C    0.30253400  -1.91774510   3.79749463
H    1.31023091  -2.22814937   3.61557074
H   -0.35682973  -2.44227705   3.13794569
H    0.03990115  -2.13529037   4.81169241
C    0.17918936  -0.40295584   3.54889937
N    0.08735368   0.72487361   3.36380891
C   -3.54372052   1.47297697  -3.01882457
H   -3.30619994   2.28463516  -2.36331321
H   -4.40151456   1.72764823  -3.60553662
H   -2.71303802   1.28212349  -3.66569443
C   -3.84655280   0.21294378  -2.18683361
N   -4.07202520  -0.72520821  -1.56737852
C   -4.58431102  -3.49736786   0.31591755
H   -4.86496260  -4.48230344   0.62581555
H   -4.74934944  -3.39390684  -0.73620280
H   -5.17424064  -2.77624432   0.84209526
C   -3.09379029  -3.26658184   0.62686088
N   -1.98402985  -3.09475116   0.85837233
Na   0.66506993   1.04376017  -1.15684304
