61
Energy:   -589.61297686
C    1.44823771   2.01622706  -2.48256010
H    2.31137626   2.39658340  -1.97736599
H    0.79280917   2.82570891  -2.72761451
H    1.75080964   1.51810948  -3.37990518
C    0.71381188   1.02066472  -1.56545906
N    0.16699847   0.27942331  -0.88263564
C   -2.78184556  -4.30230595   4.16842566
H   -3.73922132  -3.88716322   4.40504424
H   -2.23347215  -4.47167690   5.07147559
H   -2.91320827  -5.22995868   3.65160522
C   -2.00412245  -3.32090539   3.27198843
N   -1.42507224  -2.59020807   2.60455017
C   -3.17371337   1.59370566  -2.08483603
H   -3.07257127   1.52079756  -3.14754713
H   -4.18984995   1.82049395  -1.83799072
H   -2.89671544   0.66296765  -1.63550542
C   -2.25547360   2.71180218  -1.55729845
N   -1.57180235   3.54427587  -1.16452274
C    1.02547928   5.39000721  -0.12493742
H   -0.00226318   5.65791612   0.00494887
H    1.23547258   5.27677658  -1.16800057
H    1.64862634   6.15823586   0.28299833
C    1.30556129   4.06170879   0.60223338
N    1.51409508   3.07273024   1.14364509
C   -1.87663405   3.34631739   2.35133005
H   -2.14374811   3.91810618   1.48726533
H   -0.92818146   3.67793797   2.71924930
H   -2.61949042   3.47836743   3.11003044
C   -1.78809418   1.85602723   1.97344654
N   -1.72217222   0.74643847   1.69209509
C    1.63243965   1.19559858   4.06055485
H    2.20825951   0.77177121   4.85660890
H    0.67745189   1.50077218   4.43440849
H    2.14689157   2.04446047   3.66096531
C    1.43773145   0.14464286   2.95187059
N    1.29276235  -0.63784145   2.12640477
C    4.30347440   0.57360786   0.72057788
H    5.27222116   0.98505190   0.52785085
H    4.35454590  -0.07700016   1.56851656
H    3.61267847   1.36600274   0.92010340
C    3.82992736  -0.22263247  -0.50960687
N    3.47735007  -0.81546960  -1.42553534
C    0.82404754  -2.23929459  -3.68516764
H    1.51021117  -1.79294921  -2.99607007
H    1.27941005  -2.30266804  -4.65136010
H    0.56698249  -3.22133652  -3.34692173
C   -0.44891751  -1.37708007  -3.77317954
N   -1.39669786  -0.73512217  -3.83870840
C   -4.00197704  -2.75635269  -2.63437113
H   -5.03938321  -2.74495284  -2.37253402
H   -3.70940032  -3.75350716  -2.88928467
H   -3.83852906  -2.11144144  -3.47238862
C   -3.16522086  -2.26579216  -1.43821501
N   -2.54221785  -1.90054755  -0.54762240
C    3.11471659  -4.06638896  -0.32966099
H    3.64597821  -3.64033126  -1.15497070
H    3.03958964  -5.12546851  -0.46234685
H    3.63984778  -3.85711405   0.57882144
C    1.70242476  -3.45650904  -0.25839898
N    0.65090930  -3.00242572  -0.20534117
Na  -0.65313371  -1.22879320   0.78084843
