61
Energy:   -592.45944780
C    3.83852158  -2.26378701  -4.05008949
H    3.93793698  -1.62111056  -4.89978575
H    3.06628270  -2.98124087  -4.23395402
H    4.76397910  -2.77227531  -3.87726843
C    3.47491677  -1.42431892  -2.81126550
N    3.20419646  -0.79929677  -1.88890474
C   -0.43052705  -2.51676464   5.56350467
H   -1.17176651  -2.34189389   6.31509263
H    0.53767249  -2.28792538   5.95735913
H   -0.46054555  -3.54387502   5.26510517
C   -0.71397621  -1.61953254   4.34439387
N   -0.92501699  -0.95150245   3.43671047
C   -5.72167766  -1.87691345   1.10083355
H   -6.04660071  -2.81321209   1.50415730
H   -6.16444180  -1.73050022   0.13780594
H   -6.01983142  -1.08417522   1.75472155
C   -4.18766072  -1.88101939   0.96527854
N   -3.04551538  -1.88407644   0.86435167
C    1.08728185   5.78159711  -1.28578999
H    1.05102402   5.92114653  -0.22554874
H    0.44108301   6.48973520  -1.76104425
H    2.08986132   5.92621958  -1.63048962
C    0.62654350   4.35340999  -1.63162480
N    0.28350285   3.29005976  -1.88911454
C   -2.65881780   3.65910412  -0.18850934
H   -2.50706544   3.49494460  -1.23489505
H   -1.98435068   4.41522563   0.15539976
H   -3.66660313   3.97657719  -0.01975311
C   -2.39749822   2.35019515   0.57965040
N   -2.20293391   1.37565293   1.15158024
C   -0.05863779   2.51845942   3.85832146
H   -1.06200647   2.14991032   3.81012355
H    0.07124686   3.08267792   4.75814730
H    0.62450632   1.69494695   3.85196244
C    0.21530990   3.42208568   2.64176392
N    0.41927640   4.09487651   1.73598154
C    2.96554791   2.03080328  -0.10529648
H    2.79573918   2.01546538  -1.16162499
H    3.94222369   1.64743887   0.10454929
H    2.89247978   3.03633230   0.25313278
C    1.90942413   1.15742488   0.59713696
N    1.12309197   0.50715496   1.12013059
C    0.41066358   0.38033965  -3.55195485
H   -0.21155285   1.01684578  -4.14576192
H    0.67510484  -0.48851721  -4.11769125
H    1.29858163   0.90851422  -3.27350871
C   -0.35234721  -0.04542630  -2.28383109
N   -0.92044343  -0.36242841  -1.33965531
C   -1.75960295  -3.81697629  -1.88871419
H   -2.36678212  -2.93921022  -1.96461122
H   -1.66130993  -4.09482275  -0.86010400
H   -2.21885378  -4.61639089  -2.43178330
C   -0.36620693  -3.52985211  -2.47829643
N    0.67123975  -3.31607511  -2.91726722
C    2.77699210  -3.57468191   0.06050969
H    3.06640638  -4.40518318   0.66994155
H    3.49576218  -2.78881872   0.16389109
H    2.73002114  -3.88268327  -0.96312500
C    1.39356090  -3.06714381   0.50786099
N    0.36353349  -2.68925863   0.84093437
Na  -0.96094211  -0.68625494   1.04093091
