61
Energy:   -592.99983922
C   -0.73467673  -5.70546358  -4.16964149
H    0.09814476  -5.80921779  -4.83337607
H   -1.63783021  -5.63442864  -4.73899808
H   -0.78548336  -6.55806394  -3.52513361
C   -0.56032739  -4.43126285  -3.32252001
N   -0.43051638  -3.48256249  -2.69179956
C    0.00055749   1.55125367  -4.99865739
H    0.79495795   0.84009968  -5.08859118
H    0.06944494   2.26525038  -5.79261098
H   -0.94004765   1.04436400  -5.05543703
C    0.11183670   2.27670577  -3.64479765
N    0.19468913   2.81683784  -2.63678754
C   -4.43713877  -1.73804958   1.20929953
H   -4.39644359  -1.67689048   2.27677489
H   -5.10170384  -2.52599957   0.92226786
H   -4.79176928  -0.80993568   0.81213345
C   -3.02882716  -2.02780473   0.65766528
N   -1.98027514  -2.24354061   0.24694851
C    3.42970019   1.29944688  -1.80079509
H    3.99067587   1.58906597  -2.66469743
H    4.09584224   0.92393074  -1.05236908
H    2.90326922   2.14798498  -1.41640906
C    2.42123326   0.20181192  -2.18782473
N    1.67038379  -0.61542720  -2.47598590
C    4.17292916  -2.59946650   0.65287305
H    4.34270655  -2.03245947   1.54426458
H    4.70782344  -2.15463456  -0.16009174
H    4.51460721  -3.60300599   0.79800636
C    2.66696506  -2.61141153   0.33111314
N    1.54570633  -2.62030516   0.09154825
C   -3.28307690   1.93473149  -1.70142117
H   -3.96633432   1.70206983  -0.91153001
H   -3.82843465   2.28183954  -2.55406412
H   -2.60741756   2.69768061  -1.37539634
C   -2.48723245   0.67193558  -2.08033818
N   -1.89469008  -0.26827337  -2.36245913
C    0.33552171  -1.43560702   3.17705970
H    1.35457521  -1.69073463   2.97373722
H   -0.25804990  -1.61584940   2.30523144
H   -0.02758468  -2.03467689   3.98586632
C    0.24574743   0.05321575   3.56039683
N    0.17890640   1.16171197   3.84580874
C   -2.94924234   2.45360043   4.10642200
H   -3.74800015   3.15938440   4.19999091
H   -2.01276312   2.95646437   4.22903365
H   -3.05006075   1.69908670   4.85838196
C   -3.00235518   1.79998552   2.71302092
N   -3.04190010   1.31333952   1.67557047
C    3.50536590   2.32761837   3.59512250
H    4.02303214   1.85915589   4.40596450
H    2.53806138   2.64442766   3.92505117
H    4.06319325   3.17649306   3.25876033
C    3.34965426   1.32413883   2.43737352
N    3.23371987   0.57700270   1.57537678
C    0.11566671   2.97148090   0.81792661
H    0.67918282   3.51609513   0.08940405
H    0.57684022   3.07732923   1.77762146
H   -0.88211964   3.35588640   0.85734634
C    0.07694602   1.48204185   0.42847568
N    0.04811671   0.37308678   0.13851176
Na  -0.19170204  -1.60148268  -1.23861723
