61
Energy:   -590.00208961
C   -1.51067654  -3.26236897   1.14928655
H   -0.49441479  -2.97030373   1.31302454
H   -1.66018842  -4.25559259   1.51813900
H   -2.16287155  -2.58858278   1.66460483
C   -1.81947571  -3.22297341  -0.35892135
N   -2.04939072  -3.19364163  -1.48185068
C   -2.71388440   5.20379432   2.56521666
H   -2.94169466   5.72527188   1.65909094
H   -2.15973098   5.84649563   3.21694368
H   -3.62347990   4.90794713   3.04480978
C   -1.87443553   3.95404359   2.24110448
N   -1.24942769   3.02354736   1.99978822
C    0.36148564   2.34390990  -3.75496408
H   -0.56122591   2.15586806  -4.26304266
H    1.06707612   1.57836505  -4.00190991
H    0.74727240   3.29528189  -4.05655818
C    0.11873267   2.34709742  -2.23422056
N   -0.06200794   2.34947067  -1.10195789
C   -2.60550236  -2.56431926  -4.90820478
H   -3.58480251  -2.41973909  -5.31436728
H   -2.63545666  -3.34101370  -4.17284938
H   -1.93159728  -2.84096246  -5.69192640
C   -2.12284908  -1.25638548  -4.25402205
N   -1.76349177  -0.28256933  -3.76695327
C    3.05244750   0.82412975   4.09646784
H    4.10599826   0.97893831   3.99175258
H    2.86499432  -0.20087198   4.33963827
H    2.67580121   1.45069398   4.87778336
C    2.34800227   1.17477393   2.77268328
N    1.82351077   1.43584445   1.78706549
C    3.62200565   3.11944636  -0.58454118
H    4.28394776   2.95707786   0.24030384
H    2.67805051   3.46829762  -0.22101595
H    4.04367971   3.85115365  -1.24157581
C    3.42099780   1.79793669  -1.34926862
N    3.27133832   0.81401268  -1.91864296
C   -4.46090096  -0.45763301  -1.62564781
H   -4.30139371  -1.48294076  -1.88680225
H   -4.41425763   0.14646995  -2.50756793
H   -5.42352935  -0.35102693  -1.17080627
C   -3.37213647  -0.00484524  -0.63510496
N   -2.56150183   0.33227584   0.10239921
C    1.15281221  -1.77225720  -2.77259225
H    0.97979127  -1.02946173  -3.52307132
H    0.55341527  -2.63423412  -2.97903398
H    2.18671104  -2.04783936  -2.77519484
C    0.77647443  -1.20409169  -1.39159340
N    0.49627385  -0.78106663  -0.36337698
C    3.76814372  -2.07787724   0.45151041
H    4.77645506  -2.18180349   0.79415855
H    3.64818729  -1.12502111  -0.02026787
H    3.54853601  -2.85409189  -0.25145642
C    2.80564592  -2.18253299   1.64911017
N    2.08902256  -2.26045396   2.54077762
C   -0.38857092  -1.86985682   5.01879848
H   -1.27124017  -2.45131702   5.18522933
H   -0.17327732  -1.29036250   5.89214497
H    0.43418870  -2.52179777   4.81158192
C   -0.61220810  -0.92871817   3.82053122
N   -0.77871615  -0.22799766   2.92836677
Na  -0.41666122   1.05440774   0.90699730
