61
Energy:   -589.20917362
C   -1.34700530  -2.76566302   2.93078604
H   -1.98646012  -3.43032777   2.38836693
H   -1.81102303  -2.50187030   3.85814791
H   -0.41219462  -3.24889883   3.12446423
C   -1.10425784  -1.49320636   2.09800291
N   -0.92352133  -0.54580454   1.47795802
C   -1.40668189  -6.39668406   0.47614034
H   -1.10609182  -7.14445578  -0.22769433
H   -2.25415192  -5.86707927   0.09376302
H   -1.66636084  -6.86339947   1.40330951
C   -0.24583792  -5.41096370   0.70504353
N    0.61846318  -4.67705010   0.87547236
C   -2.05077226   3.61065257  -2.23402945
H   -2.35187487   3.51894317  -3.25668618
H   -1.47687047   4.50517106  -2.11004352
H   -2.91836779   3.65405387  -1.60929478
C   -1.19470860   2.39274003  -1.83976552
N   -0.55733029   1.48594878  -1.54621810
C    2.23632903   3.14952209  -3.97327265
H    3.18067848   3.52497165  -4.30814861
H    1.50988790   3.26746021  -4.74997915
H    2.33143200   2.11227649  -3.72837250
C    1.78582594   3.93227232  -2.72589579
N    1.45040591   4.51506545  -1.79716702
C    3.56902515  -3.31559982   1.66477652
H    3.50028977  -3.82456243   0.72608984
H    3.12183616  -3.91572781   2.42947743
H    4.59794120  -3.14334445   1.90259779
C    2.83069931  -1.96725497   1.57290094
N    2.28098216  -0.96335094   1.50449540
C   -0.27327117   4.95714559   1.20398454
H    0.30394594   5.51224185   0.49434468
H   -0.20215974   5.42347899   2.16438832
H   -1.29676772   4.93595621   0.89268899
C    0.26669126   3.51754474   1.29110499
N    0.66871783   2.44569648   1.35597013
C    0.34523107  -3.93026260  -2.52896182
H   -0.65556332  -4.27002085  -2.36200342
H    1.03531044  -4.64091461  -2.12440865
H    0.51580612  -3.82600034  -3.58011957
C    0.54692820  -2.56851433  -1.83862862
N    0.69710088  -1.55463084  -1.32464418
C    4.41522638   3.30329105   0.19689264
H    4.45608408   3.22341235   1.26312442
H    3.99666870   4.25001563  -0.07407068
H    5.40355815   3.22211165  -0.20498959
C    3.53637153   2.17251662  -0.36929049
N    2.88202414   1.33060366  -0.79083957
C   -2.75279828   1.68893178   3.45326483
H   -1.73175587   1.43946619   3.65361325
H   -3.36907752   0.83027310   3.62001090
H   -3.06074944   2.48072724   4.10374552
C   -2.89213546   2.14420962   1.98871465
N   -2.99587833   2.48318466   0.89829047
C   -3.28839001  -0.70448359  -1.24518961
H   -2.77396330  -0.43572230  -2.14409601
H   -3.03586743  -0.01240603  -0.46919986
H   -4.34418322  -0.67809008  -1.41695448
C   -2.87266994  -2.12536271  -0.82106777
N   -2.56314746  -3.18327181  -0.50528978
Na   0.83842819   0.37503862   0.09439063
