61
Energy:   -590.89752989
C   -0.36675856  -4.79654948  -4.04528879
H    0.36983807  -4.94384445  -4.80727945
H   -1.34391266  -4.86381631  -4.47603713
H   -0.25634637  -5.54871301  -3.29232249
C   -0.17944631  -3.40518516  -3.41234372
N   -0.03998383  -2.36925118  -2.94108734
C    4.47291028  -2.69898522   0.22470049
H    4.70348942  -3.51838923  -0.42361309
H    4.13981976  -3.07459090   1.16961856
H    5.34792549  -2.09991585   0.36740078
C    3.36108029  -1.84127510  -0.40757114
N    2.53327232  -1.20267092  -0.87832610
C   -4.83936086   3.90517843   0.43292988
H   -5.74875049   3.68969782   0.95396614
H   -4.95807280   3.66975728  -0.60407709
H   -4.60544586   4.94396194   0.53834184
C   -3.69632387   3.05906667   1.02382862
N   -2.84528087   2.42909801   1.46377958
C    0.63362631  -3.67196698   3.01472586
H   -0.02355801  -4.45624901   3.32763266
H    0.38492096  -2.76990699   3.53369842
H    1.64445531  -3.94391330   3.23646673
C    0.48259183  -3.45007941   1.49829766
N    0.37013980  -3.28487402   0.36924793
C    0.05314859   1.72527382   3.22219929
H    0.50209154   1.30754567   4.09904226
H   -0.93031170   2.07523462   3.45721504
H    0.64822902   2.54250458   2.87161084
C   -0.03401716   0.64660484   2.12653722
N   -0.09891603  -0.15651324   1.31076701
C   -4.45393316  -0.48229882   0.59235843
H   -4.15904102  -0.12630395   1.55734882
H   -5.14624536  -1.29012559   0.70645850
H   -4.91903825   0.31156930   0.04614441
C   -3.21253950  -0.97457618  -0.17458668
N   -2.28826550  -1.34109904  -0.74561217
C    3.69947203   1.91193671  -1.58921770
H    4.58191217   1.32175723  -1.45547258
H    3.96182911   2.85096544  -2.03000440
H    3.01816922   1.39429352  -2.23169035
C    3.03238537   2.15487425  -0.22262459
N    2.53570903   2.33575229   0.79486610
C   -2.60081641   0.16736059  -4.00700713
H   -3.13630943   0.29031785  -4.92517319
H   -2.70589523  -0.84108994  -3.66512257
H   -1.56513829   0.38384356  -4.16639673
C   -3.16947510   1.13023704  -2.94818881
N   -3.59286734   1.84714232  -2.15985044
C   -0.57120684   3.50427406  -0.83917567
H   -0.46683705   3.53105784   0.22538516
H   -1.57985535   3.74297897  -1.10478297
H    0.09236467   4.21816689  -1.28068328
C   -0.22476777   2.09469428  -1.35363152
N    0.03317186   1.04519806  -1.73666728
C    4.07400700   1.13448897   3.58002539
H    3.39122004   1.94923828   3.45801841
H    4.93811298   1.29900142   2.97079998
H    4.36884540   1.06686034   4.60637609
C    3.38869502  -0.17758362   3.15527485
N    2.87844911  -1.15448131   2.83902877
Na   0.11683495  -1.19568465  -0.85025729
