61
Energy:   -589.94402377
C   -0.79517036  -4.25370673   1.58334456
H   -1.54361231  -4.34253583   0.82384194
H   -1.21219304  -4.53028856   2.52912131
H    0.02558020  -4.90027128   1.35264586
C   -0.29903890  -2.79721592   1.64728282
N    0.07035352  -1.71279231   1.69488777
C    3.67326866  -2.73323450   2.40138440
H    4.25456832  -1.91911444   2.02164839
H    4.30370572  -3.38978540   2.96386918
H    2.89855318  -2.35361571   3.03431771
C    3.04428367  -3.50638495   1.22740984
N    2.57597575  -4.08203061   0.35333242
C    1.50181505   4.59775020  -1.25667770
H    1.23671194   4.11733615  -2.17527601
H    2.48196653   5.01798774  -1.34387042
H    0.79794666   5.37527519  -1.04472661
C    1.48572421   3.56530278  -0.11413955
N    1.47374384   2.79659875   0.73653203
C   -2.72061673   3.64371392   1.50365588
H   -3.03313209   4.08931039   2.42489315
H   -3.58126228   3.36614182   0.93169255
H   -2.13471894   4.34608925   0.94841560
C   -1.87539534   2.39098679   1.80009397
N   -1.24608959   1.45827451   2.02080560
C   -3.29974957  -1.18983072   0.48430075
H   -2.87302732  -0.98184290   1.44323212
H   -2.57297369  -1.67734174  -0.13135251
H   -4.15123305  -1.82677268   0.60338014
C   -3.73442565   0.12919638  -0.18114964
N   -4.05806175   1.11127201  -0.67660770
C   -4.20452644   3.95804395  -2.66350742
H   -4.48828056   4.98973331  -2.66258397
H   -4.84571715   3.41118990  -2.00417123
H   -4.29301896   3.56468040  -3.65463469
C   -2.74593165   3.82639278  -2.18730450
N   -1.65994154   3.72837250  -1.83274979
C    2.84469186  -1.70290605  -2.37282758
H    3.05873266  -2.73333528  -2.17968949
H    3.62309752  -1.28383638  -2.97562466
H    1.91124536  -1.62333304  -2.88978489
C    2.75977584  -0.93752958  -1.03919039
N    2.69655201  -0.36767202  -0.04623689
C    3.51353369   2.13884727   4.93547482
H    3.53135094   3.14412944   4.56942770
H    4.51576041   1.77711715   5.03341364
H    3.03099217   2.11540954   5.89020172
C    2.73993058   1.24634464   3.94725557
N    2.16394791   0.58183587   3.21148141
C   -1.58992543   0.37725821  -3.26553448
H   -1.10722277   0.98872646  -3.99902265
H   -2.59195776   0.72200158  -3.11727020
H   -1.60829801  -0.63779324  -3.60351687
C   -0.81603473   0.46194372  -1.93680517
N   -0.23983793   0.52499593  -0.94750581
C    0.61638692  -5.22592142  -2.27013369
H   -0.09795529  -5.91559941  -2.66883113
H    1.02329543  -5.61903967  -1.36195827
H    1.40390807  -5.07829191  -2.97929873
C   -0.07458136  -3.87997798  -1.98273308
N   -0.58903865  -2.87786192  -1.76875026
Na   0.82557026   0.51760361   1.21612314
