61
Energy:   -589.78237824
C   -4.07560448  -3.88032471   2.52030455
H   -4.22672392  -4.93794612   2.46114322
H   -5.02149191  -3.38194579   2.47770740
H   -3.58742745  -3.64078471   3.44182659
C   -3.19934309  -3.42019131   1.34045574
N   -2.54692665  -3.07760108   0.46200467
C   -2.18528205   1.52596113  -4.74246241
H   -1.67952782   0.63928020  -5.06325795
H   -1.65351891   2.38615262  -5.09203021
H   -3.17825172   1.53418150  -5.14101322
C   -2.24939755   1.55225496  -3.20402234
N   -2.29713445   1.57183191  -2.05858379
C    0.42549103  -3.81112692   2.05920844
H    0.04621123  -4.07338509   1.09366835
H   -0.37583602  -3.80754744   2.76826502
H    1.16350532  -4.52567114   2.35864218
C    1.06249461  -2.41041097   1.99739211
N    1.53677273  -1.36751427   1.95136704
C   -0.95078650   4.41647359  -0.57160002
H   -0.54034437   5.39713368  -0.69302176
H   -1.41184171   4.33945411   0.39089423
H   -1.68185791   4.23908166  -1.33249803
C    0.17425682   3.37121654  -0.68699158
N    1.01190272   2.59297515  -0.77290583
C   -0.04814520   0.18279364   4.88213723
H    0.47340239  -0.27102622   5.69879862
H   -0.57617645   1.04540462   5.23139984
H    0.65355225   0.47484844   4.12899463
C   -1.04873513  -0.82590240   4.28803952
N   -1.79371982  -1.57692245   3.84570676
C    4.78333085   2.72743958   3.49592892
H    4.49491531   3.52820203   4.14438567
H    5.50779295   3.08139610   2.79253106
H    5.20695887   1.93404889   4.07555776
C    3.54603989   2.20739607   2.74076944
N    2.62482053   1.82020003   2.17851889
C    2.59424694   2.32616594  -3.73229847
H    2.02674307   3.23249867  -3.69487486
H    3.28414341   2.37079361  -4.54896873
H    3.13347715   2.20490091  -2.81609725
C    1.64200298   1.13202269  -3.92941100
N    0.93301406   0.24292877  -4.07617024
C   -1.61008204  -1.98418925  -2.61833691
H   -1.26346728  -1.84814547  -3.62145728
H   -2.55896938  -1.50392139  -2.50063096
H   -1.71183270  -3.02972097  -2.41484412
C   -0.59681304  -1.36643209  -1.63687778
N    0.15761179  -0.90648380  -0.90613685
C   -3.27502704   0.26752089   0.96381918
H   -3.26452374  -0.32345813   0.07189225
H   -3.91089779   1.11628780   0.82182545
H   -3.64298431  -0.32161399   1.77771514
C   -1.84537943   0.74441373   1.28049086
N   -0.78094181   1.09948211   1.51626732
C    3.54125230  -1.97785589  -2.68629274
H    2.68750779  -1.97643494  -3.33128768
H    3.62102955  -2.92879476  -2.20229900
H    4.42410740  -1.79588615  -3.26279337
C    3.38453494  -0.87315831  -1.62483953
N    3.26785174  -0.05066075  -0.83453936
Na   1.38002104   0.59031493   0.53888517
