61
Energy:   -590.27167709
C    3.73468177  -3.09643989  -1.41533622
H    4.03307674  -3.64008614  -2.28729343
H    3.54517849  -3.78140221  -0.61545234
H    4.51559491  -2.42269213  -1.13048939
C    2.45402570  -2.29785366  -1.72157154
N    1.50051905  -1.70326992  -1.94957765
C   -1.19983974  -2.95936203   3.34028673
H   -2.23936257  -2.72446360   3.24481317
H   -0.76617929  -2.35295202   4.10781824
H   -1.08968965  -3.99227512   3.59691210
C   -0.48638333  -2.68359406   2.00367460
N    0.04481740  -2.47827228   1.00850612
C   -3.91476879   0.54031077   2.42777088
H   -3.83905326   1.60761100   2.42164252
H   -3.49679821   0.15830288   3.33566386
H   -4.94399152   0.25537408   2.36135744
C   -3.14399501  -0.03590312   1.22548749
N   -2.57011890  -0.46492055   0.33033286
C    3.80581280   1.37372009  -2.46757757
H    4.37021117   1.64003917  -1.59842349
H    4.36825561   1.61403947  -3.34553189
H    3.60069097   0.32368545  -2.45172244
C    2.47922361   2.15580577  -2.47773136
N    1.49151765   2.73810411  -2.48529132
C   -2.10303649   3.20459678  -1.35736152
H   -2.66200492   2.34417786  -1.66089692
H   -1.11936297   3.15667315  -1.77567817
H   -2.59492992   4.08968174  -1.70314260
C   -2.00633530   3.23807040   0.17923485
N   -1.93433688   3.26299303   1.32330069
C   -0.91765947   2.89323323   4.55117621
H   -0.06145825   3.49113155   4.31807267
H   -1.04683794   2.85375137   5.61261542
H   -1.78737494   3.32521159   4.10185584
C   -0.71228825   1.46780250   4.00567653
N   -0.55938004   0.40650453   3.59952722
C    2.76661215  -1.14952982   2.79915996
H    3.36510606  -0.85911326   3.63723122
H    2.71425505  -2.21716858   2.75114642
H    1.78063995  -0.74866168   2.90899009
C    3.39964743  -0.60786032   1.50399182
N    3.87097097  -0.20456277   0.53968028
C   -0.36851564   1.43253347  -5.10505489
H   -1.19507509   1.49516196  -5.78164733
H    0.42733542   0.88402144  -5.56402627
H   -0.02952379   2.41834198  -4.86388028
C   -0.81221417   0.71301394  -3.81780073
N   -1.14256789   0.17729894  -2.85938150
C   -3.18835862  -4.78135943  -3.24851649
H   -3.26199428  -5.70250432  -2.70910008
H   -2.71818687  -4.95791498  -4.19332640
H   -4.16810818  -4.38146952  -3.40687670
C   -2.34896570  -3.77703212  -2.43713114
N   -1.72399952  -3.02926479  -1.83301787
C    1.64344329   2.91673938   1.18215173
H    0.97708311   3.39941957   1.86617229
H    1.87651596   3.58504331   0.37968922
H    2.54357258   2.64500435   1.69286342
C    0.97153893   1.65127573   0.61757554
N    0.47127559   0.70908053   0.19722290
Na  -0.59890696  -1.11782680  -0.90876282
