61
Energy:   -589.42557467
C    4.27424373   0.10926171  -2.91557100
H    5.05831308   0.61968658  -3.43480301
H    3.60650049  -0.33388998  -3.62453831
H    4.69520493  -0.65490606  -2.29610480
C    3.50095025   1.11227074  -2.03944882
N    2.92519810   1.85905655  -1.38713603
C   -0.13623436  -2.60903416   6.02463721
H   -0.02614235  -1.87720476   6.79742804
H    0.59327804  -3.38045147   6.15740048
H   -1.11717636  -3.03370080   6.07270101
C    0.06718648  -1.94085345   4.65213784
N    0.21864254  -1.44336255   3.63024968
C   -4.71931137  -0.26469788  -0.29614577
H   -5.73057077  -0.45802034  -0.58748926
H   -4.64181815   0.73294986   0.08279074
H   -4.42838485  -0.95874067   0.46448913
C   -3.79410113  -0.42342251  -1.51696210
N   -3.10524005  -0.54160021  -2.42591535
C   -2.56863633   2.99921174  -3.00623728
H   -1.60231289   3.31177118  -3.34302474
H   -3.30215980   3.71513812  -3.31330702
H   -2.80250665   2.04485705  -3.42980650
C   -2.56709582   2.89251815  -1.46993845
N   -2.56594884   2.81307992  -0.32609414
C    0.68011298   3.90212079   0.33832308
H    0.81574034   3.56332620  -0.66752165
H    1.50685138   4.51968029   0.62120637
H   -0.22625636   4.46683837   0.40531393
C    0.59951982   2.68813438   1.28243205
N    0.53951455   1.78426632   1.98536409
C   -3.22476654   2.39086569   3.05877715
H   -2.43087635   2.93409586   3.52732761
H   -3.98603927   2.17869681   3.78012817
H   -3.63869546   2.97753632   2.26544272
C   -2.67596210   1.07001542   2.48801603
N   -2.26735225   0.08658236   2.06305844
C    4.32249067   0.95763502   1.72639278
H    4.31410303   1.18737052   2.77140543
H    4.15289108   1.85154874   1.16331788
H    5.27225598   0.54307930   1.45995612
C    3.21170517  -0.06293135   1.41623177
N    2.38467488  -0.82278941   1.18530279
C   -1.41310495  -3.51143400  -2.05737233
H   -1.25086817  -4.56791045  -2.10673736
H   -0.81721116  -3.02397124  -2.80046704
H   -2.44705222  -3.30069292  -2.23468658
C   -1.01613439  -2.99578832  -0.66162024
N   -0.72057177  -2.61186667   0.37758064
C    0.15931186   0.29235211  -3.50812514
H   -0.80085082   0.19335754  -3.96984787
H    0.78251246  -0.52627017  -3.80202589
H    0.61016777   1.21245190  -3.81641788
C   -0.00461041   0.28877855  -1.97687835
N   -0.12665800   0.28611787  -0.83679552
C    2.78904888  -3.92490900  -0.15843207
H    1.98621221  -3.98136963   0.54666768
H    3.65423616  -3.51378339   0.31835487
H    3.01428534  -4.90580386  -0.52176788
C    2.37513774  -3.02360451  -1.33653554
N    2.06696208  -2.35254235  -2.21368712
Na  -0.02260209  -0.53909985   1.41900730
