61
Energy:   -589.18480479
C   -0.35376830   2.90842751  -1.65986614
H    0.13602330   3.62708630  -1.03654126
H   -1.39101005   3.15731297  -1.74403663
H    0.09447839   2.91457545  -2.63142992
C   -0.21098924   1.50703611  -1.03751873
N   -0.10468374   0.46363652  -0.57415279
C    1.77516198  -4.00731822   4.99690041
H    0.91721147  -4.57934556   5.28256775
H    1.97997880  -3.27259464   5.74732057
H    2.61903580  -4.65711270   4.89422025
C    1.50063831  -3.30625966   3.65348922
N    1.29624296  -2.78428969   2.65325852
C   -5.00906437   2.36775675  -0.68484278
H   -4.83143093   2.83070105  -1.63301424
H   -5.79803546   2.88342954  -0.17837925
H   -5.28890116   1.34578928  -0.83374860
C   -3.72643711   2.43014903   0.16520105
N   -2.77146280   2.47660291   0.79809731
C   -1.82415943  -0.81186730  -3.32480255
H   -0.94893036  -1.36796650  -3.06093153
H   -1.54772146   0.19140951  -3.57363339
H   -2.29772162  -1.27076250  -4.16744906
C   -2.80012525  -0.79500268  -2.13366599
N   -3.52677617  -0.78244621  -1.24681068
C    2.54672754  -1.87418399  -2.97085967
H    3.47443671  -1.75535038  -2.45111506
H    2.71046487  -2.43020629  -3.87026413
H    1.85360868  -2.39979382  -2.34778692
C    1.97343250  -0.48847138  -3.32119289
N    1.54658828   0.54325464  -3.58203191
C   -4.16984300  -0.40861860   2.27418215
H   -4.15083577   0.59814787   2.63606636
H   -4.66735571  -1.03404311   2.98567663
H   -4.69353342  -0.44262437   1.34171712
C   -2.72742751  -0.90852399   2.07137147
N   -1.65348362  -1.28072627   1.92036969
C    3.85847457   2.89575569  -2.71642901
H    4.48368699   3.76065813  -2.79358708
H    3.06768397   2.96212021  -3.43416508
H    4.43955251   2.01754246  -2.90613679
C    3.26046444   2.81939783  -1.29933573
N    2.81521872   2.76254594  -0.24424536
C    4.79573020   0.51663362   1.46213710
H    5.59359264   0.68395630   0.76908673
H    5.16846619  -0.01258193   2.31413351
H    4.39190204   1.45684998   1.77489119
C    3.69215221  -0.31572137   0.78324034
N    2.87048824  -0.93544749   0.27777085
C   -2.49490873  -4.25303748  -0.46248911
H   -2.50343141  -4.86372984   0.41607926
H   -2.57456950  -4.87467080  -1.32974067
H   -3.32151282  -3.57424533  -0.43306150
C   -1.17829618  -3.45636155  -0.52113073
N   -0.19801828  -2.86320011  -0.56479207
C    0.44387745   3.32549559   2.40515542
H   -0.56965770   3.46288674   2.09087788
H    1.10069659   3.80932195   1.71276842
H    0.57616045   3.74994061   3.37842143
C    0.76689376   1.82052057   2.45322443
N    1.00739409   0.69999825   2.48901399
Na   0.57762649  -1.18243555   1.02194820
