61
Energy:   -590.69378362
C    2.65829112  -3.35374641   0.62443393
H    3.26544163  -2.47498126   0.56087094
H    2.64118977  -3.84496196  -0.32599435
H    3.06452440  -4.01545048   1.36065491
C    1.22438661  -2.95916820   1.02421622
N    0.15677952  -2.66538678   1.32187230
C   -2.47005408  -2.25461152   5.87573482
H   -2.39790375  -3.31376160   5.74196029
H   -3.47822099  -1.99406335   6.12193236
H   -1.81920409  -1.95008964   6.66855246
C   -2.05962662  -1.54350434   4.57286265
N   -1.75404472  -1.01405273   3.60281510
C   -4.49433637   0.62074680  -1.28577344
H   -5.42541709   0.11780562  -1.44401073
H   -4.04491772   0.84482295  -2.23060773
H   -4.66681148   1.52975350  -0.74831810
C   -3.55286614  -0.28618776  -0.47170740
N   -2.85189877  -0.96144177   0.13440177
C    2.01769825   2.83767005  -2.21716560
H    2.68516407   3.59423404  -2.57353689
H    1.16236417   2.78599848  -2.85797193
H    2.51892723   1.89233358  -2.21441617
C    1.56669227   3.18373039  -0.78592982
N    1.23089781   3.44138804   0.27969027
C   -2.10526234   4.60364454  -0.46150872
H   -2.50823054   5.43467484  -1.00179147
H   -1.16600801   4.88035059  -0.03007606
H   -2.78459201   4.31978804   0.31491628
C   -1.89938623   3.41787131  -1.42231925
N   -1.74610211   2.53500925  -2.13768637
C   -0.43795978   3.59347244   3.29807287
H    0.05485001   4.31734406   2.68321632
H    0.28358939   3.09733604   3.91298308
H   -1.15850347   4.08394642   3.91867835
C   -1.14868587   2.55978625   2.40478609
N   -1.67785375   1.79015990   1.73969347
C    3.65459457   1.19594558   1.45179948
H    3.66658927   2.26315813   1.52804695
H    3.81011480   0.90941028   0.43267727
H    4.43344008   0.78611455   2.06035293
C    2.29254056   0.66220328   1.93297307
N    1.27842943   0.26480788   2.29122868
C    0.06355172  -0.18670135  -3.41369585
H   -0.23171721  -1.16283064  -3.73756008
H    1.04264972   0.03161949  -3.78598904
H   -0.62972061   0.53782183  -3.78697691
C    0.07714298  -0.13879533  -1.87450116
N    0.08726228  -0.10312712  -0.72850075
C   -1.94026690  -4.06044143  -1.28955189
H   -1.93700792  -3.91732479  -0.22917121
H   -2.17597879  -5.08037651  -1.51107260
H   -2.67372886  -3.42031856  -1.73359622
C   -0.55006907  -3.71977613  -1.85779229
N    0.48499640  -3.46613532  -2.28087309
C    3.58149793  -2.68452992  -3.49423197
H    4.60706971  -2.80132444  -3.77612157
H    2.99789098  -2.45144756  -4.36024273
H    3.22547250  -3.59467146  -3.05858608
C    3.45780923  -1.54197197  -2.46911616
N    3.36571736  -0.69128564  -1.70587083
Na  -0.87119051  -0.48048219   1.44284162
