61
Energy:   -590.45748043
C    1.30371684  -2.81757246  -2.30723078
H    1.33824189  -2.47886639  -3.32162045
H    0.73876434  -3.72465528  -2.25311483
H    2.29882486  -2.99570627  -1.95662066
C    0.63492299  -1.74315341  -1.42976940
N    0.13697557  -0.94319959  -0.77645951
C   -3.63058477  -3.35260043   1.03793323
H   -4.23137355  -4.23053555   1.15275028
H   -4.25747057  -2.52107826   0.79199791
H   -3.11422843  -3.15154905   1.95327664
C   -2.60681645  -3.57516456  -0.09076674
N   -1.84457439  -3.74087368  -0.93113517
C    3.08205099   1.32865633  -2.61875763
H    3.22204118   1.61979945  -3.63882558
H    3.19936709   0.26873014  -2.53105071
H    3.80781720   1.81984348  -2.00483770
C    1.66715898   1.72818763  -2.16043969
N    0.61370757   2.02565685  -1.81920116
C    1.56042109   4.62557112   0.59702849
H    1.85109763   5.38536614  -0.09803903
H    1.45469389   5.05504024   1.57133703
H    0.62718595   4.20067942   0.29135169
C    2.63739518   3.52544423   0.63507633
N    3.43925135   2.70634976   0.66340468
C    1.96849305   0.20549674   2.84040060
H    2.83152529   0.83475043   2.90455145
H    2.22616001  -0.70311266   2.33747337
H    1.61710560  -0.01950435   3.82569267
C    0.86125727   0.93139478   2.05382514
N    0.03686989   1.47185886   1.46818397
C    1.12675033  -3.88207002   1.35506158
H    0.61457568  -4.36678061   0.55030512
H    1.47074824  -4.61670380   2.05282783
H    1.96307949  -3.33758607   0.96906953
C    0.16510861  -2.91077379   2.06458876
N   -0.55087736  -2.18759960   2.59286401
C   -3.99816003   5.14900961  -1.23495824
H   -3.63526524   5.62182599  -2.12358202
H   -4.05413520   5.86889343  -0.44531708
H   -4.97156052   4.74432958  -1.41832850
C   -3.03892408   4.01484760  -0.82858043
N   -2.32472931   3.17041243  -0.52601368
C   -3.37627413  -2.11472508  -3.60553281
H   -2.67306129  -2.91411824  -3.49893802
H   -3.54298471  -1.92256012  -4.64484956
H   -4.30038918  -2.38826337  -3.14068095
C   -2.81840046  -0.84707747  -2.93214845
N   -2.40303816   0.09674380  -2.43078318
C   -2.97933516   0.07168795   3.60009704
H   -2.37510310   0.86719810   3.98346031
H   -2.60821587  -0.86435233   3.96203371
H   -3.99048572   0.20380504   3.92416296
C   -2.92781099   0.08379648   2.06100684
N   -2.88944890   0.09281183   0.91508423
C    5.73419618   0.20804872   0.67480788
H    5.47295238   0.86030782   1.48178366
H    6.08437930   0.78792918  -0.15344905
H    6.50572231  -0.46161263   0.99292769
C    4.49576698  -0.60150089   0.24758132
N    3.57370014  -1.20424737  -0.07050827
Na  -1.21877779   1.04307017  -0.56040662
