61
Energy:   -589.20998758
C    1.91995387  -0.79439558  -4.31031647
H    1.92695617  -1.78765131  -4.70817851
H    2.91891849  -0.50283668  -4.06139441
H    1.52319353  -0.12045163  -5.04057661
C    1.04315025  -0.75445210  -3.04492327
N    0.39033010  -0.72471237  -2.10278053
C   -0.50951137  -2.93718219   5.80465647
H   -1.21011765  -3.71046688   6.04147248
H   -0.14130776  -2.50021155   6.70930107
H    0.30663764  -3.35257653   5.25126021
C   -1.20574575  -1.85528212   4.95828189
N   -1.72412389  -1.04975834   4.32811755
C   -3.71933672   1.45791094   3.32107085
H   -3.27864120   1.66393437   4.27408816
H   -4.10262354   0.45894261   3.31381970
H   -4.51737902   2.14744314   3.14059117
C   -2.65337607   1.60674818   2.21962845
N   -1.85971991   1.71756427   1.39955451
C    2.42816264   3.10021503  -3.27798370
H    3.30639612   2.51056702  -3.11698259
H    2.67673312   4.13821623  -3.20271537
H    2.03594178   2.89714905  -4.25257393
C    1.37091020   2.74718421  -2.21535182
N    0.58373771   2.48433671  -1.42417408
C   -3.12893079  -0.84553052  -3.92414016
H   -4.16632747  -0.73910003  -4.16368317
H   -2.92739508  -1.86135491  -3.65509881
H   -2.53722810  -0.57765627  -4.77445211
C   -2.77752475   0.07777988  -2.74278006
N   -2.51588698   0.76522645  -1.86320376
C    1.25920838   0.60547648   3.95341429
H    1.46614171  -0.37602346   4.32588798
H    0.31590510   0.93926370   4.33244478
H    2.02912049   1.27719224   4.27111286
C    1.21093266   0.57093001   2.41455888
N    1.17498919   0.54520858   1.26881107
C    4.56889200   1.39990221   0.84375116
H    5.52006550   1.86332392   0.68434766
H    4.66601378   0.63069732   1.58117254
H    3.86739160   2.13302828   1.18334273
C    4.06976574   0.78484679  -0.47692284
N    3.69814355   0.32691008  -1.46022466
C   -2.12777860   3.75522138  -4.06857192
H   -1.57758242   4.66983565  -4.14383872
H   -2.44598135   3.61262451  -3.05698295
H   -2.98392818   3.80029960  -4.70878668
C   -1.22945872   2.57921243  -4.49474599
N   -0.56061874   1.70362030  -4.81205196
C   -2.37536956  -3.47553634   1.95668844
H   -3.08826925  -3.12327412   2.67263923
H   -1.55084450  -3.92774043   2.46714801
H   -2.83875725  -4.19788624   1.31764104
C   -1.86909388  -2.29204880   1.11132332
N   -1.49214863  -1.41088853   0.48191057
C    2.08561750  -2.77525486   0.14632814
H    1.31162704  -3.09583254  -0.51930606
H    2.92806215  -3.42854946   0.05471880
H    2.37957948  -1.77706787  -0.10288697
C    1.56400822  -2.81024992   1.59487884
N    1.17564640  -2.83630533   2.67339067
Na  -0.60712500   0.66946540  -0.37172543
