61
Energy:   -593.66616707
C   -2.85803822  -2.81152628   2.94142584
H   -2.55415639  -2.97878746   3.95364109
H   -3.05824494  -3.75063918   2.46932064
H   -3.74316122  -2.21043315   2.92945033
C   -1.73333543  -2.08429814   2.18130554
N   -0.89594309  -1.54284373   1.61536143
C    4.73559548  -1.43914052  -0.36946276
H    5.17846699  -1.02191484   0.51070071
H    5.07870217  -0.90328029  -1.22971314
H    5.01483753  -2.46845952  -0.45563331
C    3.20247188  -1.32942165  -0.27410140
N    2.06099167  -1.24773096  -0.20310053
C   -4.73563240   1.43916453   0.36907239
H   -5.07885235   0.90338393   1.22932782
H   -5.17838485   1.02185475  -0.51111049
H   -5.01488935   2.46849080   0.45510772
C   -3.20249571   1.32944165   0.27392631
N   -2.06100575   1.24774798   0.20308573
C    0.45355533  -4.35069953  -0.32235865
H    0.81063250  -3.87437061   0.56674587
H    0.71093884  -3.75579495  -1.17367607
H    0.90263059  -5.31757097  -0.41395624
C   -1.07714413  -4.50090314  -0.24491160
N   -2.21681945  -4.61273655  -0.18724875
C    2.85793722   2.81168010  -2.94136684
H    3.05814545   3.75076790  -2.46921119
H    2.55401490   2.97899814  -3.95355999
H    3.74307074   2.21060104  -2.92946215
C    1.73327541   2.08438600  -2.18124902
N    0.89591357   1.54288249  -1.61530675
C   -0.45352693   4.35069976   0.32256404
H   -0.90259518   5.31756935   0.41422143
H   -0.71089219   3.75575289   1.17385743
H   -0.81062854   3.87441754  -0.56655506
C    1.07717135   4.50089969   0.24508652
N    2.21684579   4.61273037   0.18740098
C    3.19555990   2.41004997   2.95044882
H    4.06890291   1.82296860   2.75677988
H    3.01000901   2.43655919   4.00390371
H    3.34807295   3.40589341   2.58998426
C    1.98614649   1.78358355   2.23179798
N    1.08568323   1.31715083   1.69672976
C   -5.71757276  -4.33686135   0.03206336
H   -6.37003548  -4.41073655  -0.81276505
H   -6.27055206  -4.52918408   0.92767765
H   -4.92979354  -5.05483589  -0.06182780
C   -5.11644948  -2.92038618   0.09410285
N   -4.66888588  -1.86575603   0.14029407
C    5.71759165   4.33683978  -0.03201519
H    6.27031781   4.52930736  -0.92775523
H    6.37029293   4.41057900   0.81264016
H    4.92983874   5.05479868   0.06221562
C    5.11645151   2.92037434  -0.09411346
N    4.66887535   1.86575144  -0.14034845
C   -3.19546421  -2.41021237  -2.95042073
H   -4.06883311  -1.82314701  -2.75682011
H   -3.34796075  -3.40603995  -2.58990536
H   -3.00987054  -2.43677603  -4.00386672
C   -1.98609882  -1.78366743  -2.23175752
N   -1.08567133  -1.31717624  -1.69668010
Na  -0.00000583   0.00000551   0.00001973
