61
Energy:   -589.22342604
C   -2.31407481  -1.34108826  -4.56524219
H   -2.11601800  -2.20073494  -5.17078433
H   -2.36530999  -0.47137778  -5.18643277
H   -3.24594364  -1.47080808  -4.05564201
C   -1.18419168  -1.16887274  -3.53310561
N   -0.34294233  -1.04065045  -2.76463301
C    2.99631224  -0.54170138   3.68259552
H    2.62096170  -0.77618459   4.65677712
H    3.29577914   0.48512159   3.65338503
H    3.83833211  -1.16511922   3.46522070
C    1.89364679  -0.78482309   2.63539891
N    1.07266224  -0.96583826   1.85571343
C    4.78464022   1.00497259   0.40041530
H    5.54140350   1.28019382  -0.30418585
H    5.19700374   0.33049915   1.12148465
H    4.42409355   1.88141807   0.89715316
C    3.62088720   0.31816975  -0.33821909
N    2.75442017  -0.19318618  -0.88816597
C   -4.46839640  -1.26179943   0.18096959
H   -4.85718452  -2.02679950   0.82012439
H   -4.83583134  -1.40700109  -0.81341823
H   -4.78109104  -0.30371188   0.54039885
C   -2.92995122  -1.33071934   0.17493010
N   -1.78450885  -1.38203334   0.17043344
C   -1.23944204   3.08212569  -2.36482079
H   -0.51574596   3.79107235  -2.70914448
H   -2.04432770   3.59855340  -1.88486185
H   -1.61816821   2.52625741  -3.19697224
C   -0.57750598   2.11853570  -1.36235634
N   -0.08466450   1.40109915  -0.61597599
C    4.72184107  -3.39388842  -1.35422338
H    3.87039193  -3.10510186  -1.93434136
H    4.84500635  -4.45553174  -1.40563216
H    5.59647285  -2.91420203  -1.74128836
C    4.51120908  -2.97194149   0.11178991
N    4.35438400  -2.65778282   1.20330343
C    0.44405564   4.49344466   1.31433329
H    0.35200508   5.19282938   2.11887532
H   -0.52345231   4.11487946   1.05837267
H    0.87221424   4.98211763   0.46416975
C    1.35280116   3.32837854   1.74838686
N    2.02940351   2.46093385   2.07155948
C    1.49537442  -4.97314977   1.62793524
H    2.40692899  -4.70966063   2.12244702
H    1.56734130  -5.97418014   1.25691225
H    0.68208190  -4.90691760   2.32008239
C    1.25037156  -4.00696485   0.45402712
N    1.06795580  -3.28759625  -0.42000084
C   -5.52244651   2.68058637  -1.48133619
H   -5.11800165   3.12362661  -0.59531142
H   -6.45799449   2.21467540  -1.25204154
H   -5.67323029   3.43798115  -2.22195518
C   -4.54103736   1.62341896  -2.02062566
N   -3.81033364   0.83630976  -2.42215118
C   -1.54814452   1.06097856   2.86656519
H   -1.70579197   0.00468484   2.80105907
H   -1.84726717   1.40692727   3.83390392
H   -0.51109250   1.27686548   2.71551872
C   -2.38331819   1.77262983   1.78599247
N   -3.00514294   2.30248655   0.98145696
Na   0.49257027  -0.94240583  -0.50882326
