61
Energy:   -593.75836022
C    3.27033748  -1.75977543  -4.32882551
H    3.43598444  -0.71164612  -4.19139839
H    2.92478512  -1.93858282  -5.32558053
H    4.18597223  -2.28963650  -4.16832832
C    2.21143531  -2.24834616  -3.32302989
N    1.42303451  -2.61210928  -2.57416933
C   -2.51821561  -2.97801011   5.88686013
H   -2.89063107  -3.95927546   5.67871304
H   -3.31592879  -2.36286068   6.24761483
H   -1.75026949  -3.03807967   6.62952392
C   -1.93937239  -2.36462051   4.59833628
N   -1.50839731  -1.90792406   3.63897170
C   -4.64667404  -0.10624204  -1.02354449
H   -4.59752431  -1.09217543  -1.43636386
H   -4.32123105   0.60342331  -1.75522819
H   -5.65495822   0.11152406  -0.73922070
C   -3.73463042  -0.02204284   0.21447285
N   -3.05557249   0.04064730   1.13623303
C    0.93636659   3.77773610  -2.54393790
H    1.59014189   3.01316982  -2.90851499
H    1.27370806   4.73150547  -2.89239711
H   -0.05626092   3.59829089  -2.90085404
C    0.93854096   3.76369202  -1.00400347
N    0.94015988   3.75323556   0.14254770
C   -2.48778755   3.64718412   0.93516809
H   -3.38101082   4.21468543   1.09326501
H   -1.63463487   4.27072350   1.10318065
H   -2.46513577   2.82102991   1.61476739
C   -2.46271746   3.12201940  -0.51230333
N   -2.44405163   2.73101039  -1.59001159
C    0.77942251   3.61496354   3.57900796
H    1.47608249   3.98290228   2.85500095
H    1.27182554   3.50127085   4.52214756
H   -0.02935298   4.30817677   3.68018464
C    0.23209178   2.25132802   3.11800121
N   -0.17542083   1.23603938   2.77476074
C    3.20779810   1.32737223   0.75092283
H    3.41540131   2.37164462   0.85720681
H    3.99653032   0.75955594   1.19856693
H    2.28243462   1.09651086   1.23600483
C    3.10565138   0.97389881  -0.74447764
N    3.02959851   0.71072178  -1.85787127
C   -0.39774904   0.28115542  -3.11130900
H   -1.13725110   0.99309485  -3.41326784
H   -0.68168629  -0.69337938  -3.44977710
H    0.54717700   0.54564325  -3.53799396
C   -0.28474844   0.27843169  -1.57546283
N   -0.20061435   0.27640375  -0.43195555
C   -0.85791349  -4.74939705  -1.38522092
H   -1.54650312  -5.54399444  -1.18682866
H    0.13959073  -5.08561304  -1.19327502
H   -0.94291316  -4.45113669  -2.40928874
C   -1.18018416  -3.55114093  -0.47312231
N   -1.42012933  -2.65898478   0.20597657
C    3.37289001  -2.86425561   0.16480386
H    3.76820864  -2.16852539  -0.54553607
H    2.97896012  -3.71518418  -0.35059783
H    4.15164135  -3.17804473   0.82811512
C    2.25006948  -2.18926303   0.97428460
N    1.41407855  -1.68670037   1.57697981
Na  -0.83044843  -0.78204460   1.64207734
