61
Energy:   -589.36336776
C   -3.19814301   3.43939364   0.18183264
H   -2.89195935   4.43932667  -0.04463082
H   -3.52080486   3.38728406   1.20069132
H   -4.00493008   3.15882821  -0.46258707
C   -2.01325433   2.47903919  -0.03114187
N   -1.13105084   1.76401165  -0.18971107
C    1.74674272  -4.61484347   0.10384823
H    2.65119951  -4.48823598  -0.45367187
H    0.96385624  -4.93093138  -0.55347687
H    1.89594600  -5.35456018   0.86243682
C    1.35703048  -3.27749182   0.76051781
N    1.06687201  -2.28177273   1.24943817
C   -4.47902392  -2.27602832   0.35576548
H   -4.77884270  -2.05009760   1.35774562
H   -4.57499256  -3.32766694   0.18329712
H   -5.10244104  -1.74349398  -0.33173533
C   -3.01212868  -1.85407681   0.15137548
N   -1.91995850  -1.53991472  -0.00080217
C    3.15854127   3.47786221   0.36298975
H    4.14226406   3.47873630   0.78392785
H    2.61083595   4.31859426   0.73459116
H    3.22670144   3.53952548  -0.70305478
C    2.43290105   2.17782718   0.75663321
N    1.89262892   1.20989200   1.04971867
C   -6.99780259   1.28268320   0.31926453
H   -7.74582887   0.56047225   0.57178822
H   -6.75561803   1.19707796  -0.71944499
H   -7.36953963   2.26595858   0.51896478
C   -5.73474298   1.03015268   1.16336686
N   -4.79433768   0.84213222   1.79183941
C    3.07142458  -0.50753155  -3.25490727
H    3.79293421  -1.23577094  -2.94832704
H    3.51912708   0.46425214  -3.24500656
H    2.73378782  -0.73461332  -4.24452052
C    1.87457555  -0.53122534  -2.28609820
N    0.98346705  -0.54886644  -1.56477581
C    4.44836846  -0.88153984   1.89091151
H    4.72280825   0.13786361   1.71655674
H    5.17414479  -1.34234563   2.52794042
H    3.48769137  -0.91692112   2.36074848
C    4.39146172  -1.63458165   0.54879018
N    4.34909206  -2.19525550  -0.45048016
C   -2.97794141   0.47018025   4.61990823
H   -2.50309276   0.61946869   5.56707870
H   -3.58209984  -0.41207200   4.65892945
H   -3.59434522   1.31481384   4.39288504
C   -1.90466937   0.30945893   3.52727115
N   -1.10556956   0.18979460   2.71375317
C   -2.07510643   0.07569322  -3.25589187
H   -1.34025295   0.82737292  -3.05622170
H   -2.28944730   0.05594331  -4.30401735
H   -1.70089008  -0.87902475  -2.95031893
C   -3.36284956   0.39634222  -2.47454569
N   -4.32163285   0.63507998  -1.89279795
C    7.25085783  -0.26615662  -1.84693333
H    7.50835253  -0.04718680  -2.86214211
H    6.96923478  -1.29512364  -1.76438384
H    8.09377199  -0.07535697  -1.21606859
C    6.07241627   0.62502655  -1.41257399
N    5.19501296   1.28855293  -1.08917372
Na  -0.00075197  -0.21595486   0.62463529
