61
Energy:   -590.92514069
C   -1.03678479   2.69891659   4.05738952
H   -1.49694193   3.31054385   3.30968124
H   -0.49561419   3.31852200   4.74158439
H   -1.79095763   2.15598071   4.58780731
C   -0.06793674   1.70828200   3.38539505
N    0.65341467   0.97070952   2.88506463
C   -3.13661184  -3.35126115   3.83979347
H   -4.01154029  -2.83977270   3.49660262
H   -3.19379733  -3.48383865   4.90000672
H   -3.07263803  -4.30738079   3.36372450
C   -1.88713679  -2.52051062   3.49300006
N   -0.95684583  -1.90197908   3.23479660
C    0.19778845   0.01076640  -4.64720012
H   -0.30911572   0.14210353  -5.58031260
H    0.64596662  -0.96042076  -4.61837421
H    0.95755939   0.75734428  -4.54586563
C   -0.81119399   0.14500879  -3.49154731
N   -1.56242728   0.24495835  -2.63111126
C   -3.61409006   1.98678973  -0.38198998
H   -4.62045610   1.94014071  -0.02150219
H   -3.59026040   1.69676012  -1.41165695
H   -3.24631824   2.98686247  -0.28453496
C   -2.72928709   1.03199640   0.44086688
N   -2.07051106   0.32110938   1.05352122
C    2.03250374   3.58540888   0.49144013
H    2.35376849   3.56068185  -0.52889203
H    2.39286525   2.71569937   1.00001072
H    2.42009605   4.46246300   0.96625310
C    0.49362552   3.61042661   0.54461860
N   -0.65213926   3.62905344   0.58421238
C    3.23746262  -1.86425856   4.36304945
H    3.00897046  -0.93165893   4.83522467
H    4.29803334  -1.96134792   4.25979001
H    2.86226060  -2.66823050   4.96117290
C    2.57990078  -1.90965028   2.97123336
N    2.09031610  -1.94344647   1.93496302
C   -1.50707333   4.02523614  -2.87106824
H   -2.19817635   3.22738191  -3.04629789
H   -1.61363993   4.76420551  -3.63753214
H   -1.70799272   4.46829226  -1.91805630
C   -0.06984905   3.47231570  -2.88735831
N    1.00022975   3.06064130  -2.89948700
C   -2.05084578  -3.13816662  -2.36689618
H   -2.77309597  -2.38069446  -2.58936140
H   -2.53950171  -4.08753050  -2.29745042
H   -1.31702768  -3.17080220  -3.14493539
C   -1.36419446  -2.81501459  -1.02686531
N   -0.85295134  -2.57441321  -0.02915142
C    2.52920930  -4.12261889  -0.69654420
H    3.36021371  -3.62342370  -0.24362477
H    2.84802261  -5.06880057  -1.08124851
H    1.76288208  -4.27474361   0.03455070
C    1.97726867  -3.26034509  -1.84695518
N    1.56632378  -2.61834305  -2.70348845
C    3.20988652   0.47207321  -2.30834769
H    3.02983982  -0.24692338  -3.08005182
H    4.17246132   0.29687243  -1.87515773
H    3.18013882   1.45726456  -2.72477556
C    2.12644355   0.34110967  -1.22179355
N    1.31977101   0.24360137  -0.41280461
Na   0.03972986  -0.79394571   1.31648603
