61
Energy:   -589.90380074
C   -1.97510241   2.69864215   0.86348654
H   -2.62983501   3.28374312   1.47494566
H   -1.11544055   3.28020376   0.60335835
H   -1.66656748   1.82771351   1.40310548
C   -2.71410831   2.27300558  -0.41881756
N   -3.26433180   1.95609981  -1.37355124
C    3.40707829  -4.50614754   1.66480701
H    3.40815527  -5.34796731   1.00432348
H    4.05732766  -4.70092581   2.49193232
H    3.74909396  -3.63951930   1.13861326
C    1.97740580  -4.26151765   2.18229399
N    0.91294964  -4.07937957   2.56758658
C    1.98027341  -1.21633623   4.72987904
H    1.35624175  -0.40214228   5.03413697
H    2.85983290  -1.23848080   5.33879924
H    1.44578797  -2.13650802   4.84171946
C    2.38176454  -1.03193541   3.25461594
N    2.68069294  -0.89464062   2.15621551
C   -1.61097307  -0.40234433  -3.54894880
H   -1.11610852  -0.25610447  -4.48629781
H   -2.53845765   0.13120128  -3.54822278
H   -1.79952912  -1.44559352  -3.40411500
C   -0.71694228   0.12077266  -2.40936223
N   -0.05129572   0.51025704  -1.56088823
C   -1.20576834   3.91938401  -3.38838295
H   -1.57954771   2.92404408  -3.50874737
H   -0.82407461   4.27255193  -4.32352005
H   -1.99747463   4.56055802  -3.06128031
C   -0.07769188   3.92082039  -2.34003118
N    0.76221233   3.92188984  -1.55948564
C   -2.21017591  -2.59215204   2.54040077
H   -3.00888872  -2.14114648   3.09135632
H   -1.66454664  -3.25375670   3.18029691
H   -2.61224178  -3.14382592   1.71644807
C   -1.26724883  -1.49504681   2.01233956
N   -0.56519675  -0.67820210   1.61917399
C   -0.52231870  -4.37823930  -0.81574438
H   -0.81185852  -4.69078414   0.16577618
H   -0.04347567  -5.19028937  -1.32188974
H   -1.39010954  -4.07772707  -1.36486236
C    0.45419801  -3.19217415  -0.70960969
N    1.18125909  -2.30909474  -0.63058758
C    2.54100360   4.46450806   1.43275856
H    3.60421275   4.34576851   1.41307581
H    2.25934073   5.01138058   2.30825589
H    2.22565624   4.99934456   0.56132007
C    1.87002447   3.07854942   1.45524537
N    1.37045001   2.04664022   1.47198783
C    3.90245030   2.84983771  -2.70706104
H    4.96709361   2.95344130  -2.68058282
H    3.44691768   3.77181267  -2.41150851
H    3.59286941   2.60148426  -3.70073067
C    3.47135052   1.73121259  -1.74040143
N    3.15037714   0.89834533  -1.02067940
C   -5.36773848  -0.68750265  -1.04129949
H   -6.12732183  -1.40916818  -1.25839896
H   -5.31868549   0.02845031  -1.83496457
H   -5.60184981  -0.18809486  -0.12441190
C   -4.00815821  -1.39805594  -0.90618658
N   -2.99588890  -1.92709517  -0.80558888
Na   1.38293285  -0.06976422   0.28790503
