61
Energy:   -593.08073508
C   -1.43669252   5.02950865  -0.03939686
H   -1.20972750   4.60923270   0.91807648
H   -2.44823268   5.37829660  -0.04510221
H   -0.77605207   5.84809705  -0.23527009
C   -1.25831888   3.95424063  -1.12732219
N   -1.12551160   3.15365471  -1.93733205
C   -0.16020521   0.04686908  -3.07867522
H   -0.95788330   0.69393834  -3.37852723
H   -0.33521487  -0.93649481  -3.46242797
H    0.76577147   0.42030009  -3.46340312
C   -0.09297607  -0.00657965  -1.54107206
N   -0.04292093  -0.04637466  -0.39625662
C   -3.87637443   1.09139698  -0.66601283
H   -3.35235387   1.12717703  -1.59822655
H   -4.66784582   1.81140388  -0.67389863
H   -4.28566929   0.11298920  -0.52425592
C   -2.90236478   1.41180511   0.48300581
N   -2.17717032   1.65036354   1.33850241
C    4.74332172  -0.37892866   1.25630591
H    4.98245511  -1.35163561   0.88006584
H    5.37653411  -0.15287361   2.08867619
H    4.89361782   0.34832519   0.48597350
C    3.27147926  -0.35100990   1.70852300
N    2.17562564  -0.33022311   2.04521918
C    0.14493867   2.42031478   6.67569611
H    0.43804931   1.60504907   7.30365165
H   -0.81934408   2.77335322   6.97639818
H    0.85837471   3.21286061   6.76389599
C    0.08411008   1.94490215   5.21217887
N    0.03882044   1.59093583   4.12252376
C   -3.62671620  -2.47270219   2.33380157
H   -3.62020229  -3.16766905   1.52024222
H   -4.39019657  -1.74080219   2.17156959
H   -3.82141922  -2.99475254   3.24728570
C   -2.25702110  -1.77449479   2.42347752
N   -1.23722084  -1.25464765   2.49024533
C   -2.63736183  -3.59939728  -3.25566660
H   -3.33606242  -3.20346886  -3.96274392
H   -2.87997176  -4.62063710  -3.04804013
H   -1.64879809  -3.54299767  -3.66120317
C   -2.70537125  -2.78058816  -1.95315889
N   -2.75600735  -2.17094755  -0.98338269
C    3.68089252  -2.27175226  -3.57377857
H    4.42094808  -1.95154095  -4.27711538
H    2.76993756  -2.49211911  -4.09001361
H    4.02558009  -3.14945743  -3.06808775
C    3.43076701  -1.15221233  -2.54632172
N    3.24453720  -0.31866396  -1.78133340
C    0.61795621  -3.43225238   0.44468052
H    1.21993315  -4.25253204   0.77583793
H   -0.39561098  -3.58736873   0.75049020
H    0.98520567  -2.52389121   0.87468856
C    0.68177393  -3.33577214  -1.09096881
N    0.72928912  -3.26393821  -2.23432954
C    2.53035583   3.02317364  -1.36805645
H    3.41659917   2.42397217  -1.38880566
H    2.79659250   4.05656286  -1.44631148
H    1.89880820   2.75441853  -2.18892024
C    1.78060130   2.78507389  -0.04413173
N    1.22237497   2.60779780   0.94159039
Na   0.01156731   0.72271247   1.89694690
