61
Energy:   -589.17488268
C    0.79693083  -1.08289737  -4.02962517
H   -0.27211232  -1.12574110  -4.01508750
H    1.17075251  -1.75530399  -4.77328220
H    1.11084349  -0.08622052  -4.25982767
C    1.34573145  -1.48794187  -2.64891635
N    1.75433846  -1.78951591  -1.62091588
C    1.02890208   3.27444840   3.43329859
H    1.90684790   3.65970107   3.90836878
H    0.24312164   3.18568226   4.15410977
H    0.72393052   3.94053840   2.65341683
C    1.33518443   1.88905530   2.83456904
N    1.56322556   0.85756716   2.38878768
C   -5.23720650  -2.01293400  -1.07448714
H   -4.75497603  -2.03673221  -2.02936283
H   -6.27134890  -1.77024079  -1.20312849
H   -5.15129269  -2.97182432  -0.60753183
C   -4.56651638  -0.94789199  -0.18709755
N   -4.06715709  -0.15491981   0.47360434
C   -4.35931504   3.01465703   1.58149751
H   -4.68950136   2.16369937   2.13984170
H   -4.77172109   2.97583190   0.59493127
H   -4.68504976   3.90957101   2.06927303
C   -2.82171990   3.00727196   1.49578490
N   -1.67691043   3.00177344   1.43196796
C    5.14235889  -3.73549668   2.84364975
H    5.60344650  -4.41560146   2.15826235
H    4.64221013  -4.28752835   3.61177171
H    5.89093570  -3.11021982   3.28360508
C    4.12118493  -2.86207098   2.09136571
N    3.36087449  -2.21176585   1.53125605
C   -2.14469653   1.23740296  -1.97118237
H   -1.75748728   1.87026156  -2.74219415
H   -2.87438559   1.77439385  -1.40189005
H   -2.60015718   0.37554029  -2.41237101
C   -0.99625669   0.79413138  -1.04587363
N   -0.14119103   0.46409555  -0.35693922
C   -1.97400018  -0.66100647   3.02485490
H   -2.90526577  -1.17874229   2.92690484
H   -2.07062373   0.32594263   2.62299118
H   -1.70669412  -0.60037371   4.05915188
C   -0.87932718  -1.42359006   2.25559729
N   -0.06429336  -1.99136820   1.68285002
C    1.38052557   3.78400363  -0.70804909
H    0.44406147   3.63649782  -0.21188660
H    1.48846130   4.81669829  -0.96648809
H    2.17864468   3.49394631  -0.05707158
C    1.42429223   2.92745759  -1.98711647
N    1.45687850   2.28972013  -2.93944027
C   -0.74218485  -4.34146259  -0.64438502
H   -1.11489132  -4.39581956   0.35713152
H    0.31548916  -4.18092376  -0.62312305
H   -0.95360150  -5.25831418  -1.15388012
C   -1.42374534  -3.17470211  -1.38313076
N   -1.93119810  -2.30599589  -1.93316054
C    4.85004863   0.96172499  -2.64589156
H    5.70648269   1.57532756  -2.45904195
H    4.23575260   1.42382349  -3.39020631
H    5.16851206   0.00083589  -2.99255026
C    4.04320016   0.79648131  -1.34462676
N    3.44246481   0.67344987  -0.37577597
Na   1.72919391  -0.74438656   0.58669371
