61
Energy:   -589.14572744
C    3.28582592  -0.67345883  -4.40323929
H    3.53508302  -1.40189345  -5.14631001
H    4.16411857  -0.12589200  -4.13181401
H    2.55275800  -0.00004557  -4.79569961
C    2.71806597  -1.38235738  -3.15957073
N    2.29534288  -1.91016457  -2.23360296
C   -1.48804324  -3.35308649   6.10681630
H   -1.98439450  -4.27787322   5.89871748
H   -2.16145591  -2.69267044   6.61205398
H   -0.63622584  -3.53729241   6.72760161
C   -1.03043709  -2.70747038   4.78568934
N   -0.68972852  -2.22677984   3.80205027
C   -4.76504000  -0.33006671  -0.46658895
H   -5.18208564   0.64669751  -0.33657061
H   -5.53716252  -1.06390155  -0.36553277
H   -4.32756943  -0.40439025  -1.44023909
C   -3.68315550  -0.57273354   0.60216674
N   -2.87764331  -0.75341002   1.39790393
C   -2.91619003   2.97160607   1.27055036
H   -3.37600524   3.79124653   1.78207717
H   -2.81828550   2.14292183   1.94032364
H   -3.52264294   2.68633090   0.43644483
C   -1.52246788   3.39520608   0.77084888
N   -0.48477838   3.71059554   0.39879840
C   -1.19694157   3.80848930  -3.15278817
H   -0.60166522   3.34264847  -3.91011146
H   -0.56246782   4.15876859  -2.36561184
H   -1.72972837   4.63443370  -3.57569853
C   -2.20004952   2.78606721  -2.58707844
N   -2.94690899   2.02482749  -2.16588183
C    1.36437458   3.17229356   3.48368105
H    1.07167587   3.62213668   4.40935314
H    1.28300985   3.89188243   2.69598140
H    2.37732293   2.83514265   3.55554187
C    0.44485623   1.97442886   3.18167747
N   -0.23976697   1.08256414   2.95682209
C    2.41916661   2.23984828  -0.30425505
H    3.43823941   1.93427551  -0.19016697
H    1.79751333   1.65726019   0.34307593
H    2.32675893   3.27525513  -0.05069525
C    1.98017678   2.02792377  -1.76506850
N    1.65332890   1.87013633  -2.85271051
C   -0.87503122  -0.61723000  -2.96415861
H   -0.31770642   0.02618493  -3.61246908
H   -1.91894626  -0.52273442  -3.17912619
H   -0.56937326  -1.63091964  -3.11877304
C   -0.61462353  -0.22031353  -1.49915173
N   -0.42073817   0.07520883  -0.40838752
C    0.67569543  -4.82866016  -1.24624891
H    0.68840547  -5.79276678  -0.78231244
H    1.67487704  -4.54139712  -1.49926107
H    0.08018479  -4.86802863  -2.13434591
C    0.07641699  -3.79784834  -0.27162470
N   -0.36977304  -3.03036209   0.45402733
C    4.12077332  -2.15188764   0.58849965
H    4.65068664  -1.44965561  -0.02056704
H    3.82715375  -2.99065819  -0.00744548
H    4.75482035  -2.48395924   1.38386869
C    2.86813098  -1.47743817   1.17808009
N    1.93548183  -0.97527988   1.61704952
Na  -0.49321253  -0.99175443   1.76340517
