61
Energy:   -589.97842226
C    0.52741840  -2.29917684  -3.88961339
H    0.98815542  -1.34325883  -4.02688075
H   -0.29699816  -2.39796702  -4.56450369
H    1.24239006  -3.07100534  -4.08453744
C    0.02181945  -2.42194433  -2.44016596
N   -0.35462195  -2.51335031  -1.36098647
C    0.27915417  -2.49542047   4.14130818
H    0.18342299  -3.45041179   4.61430637
H   -0.01727439  -1.72749856   4.82492003
H    1.29760920  -2.34137099   3.85162353
C   -0.62224448  -2.44789634   2.89358148
N   -1.29337674  -2.41251247   1.96459223
C   -5.99813975  -2.41825280  -0.66070993
H   -6.45406665  -2.28304079  -1.61922365
H   -6.59548091  -1.94237207   0.08870328
H   -5.92270177  -3.46375512  -0.44592378
C   -4.59079286  -1.79302661  -0.66889300
N   -3.54295913  -1.32751730  -0.67498567
C    0.86688419   6.07028300   0.33878577
H    0.49736853   6.58714359   1.19972332
H    0.10781267   6.04466632  -0.41490734
H    1.72862199   6.57900408  -0.04004126
C    1.25094851   4.63107832   0.72966235
N    1.53690186   3.55952502   1.02068773
C   -3.87110040   2.49262712  -1.37310356
H   -4.20891433   1.93205174  -0.52661837
H   -3.54610599   1.82034127  -2.13946474
H   -4.67299373   3.09593476  -1.74443369
C   -2.69852086   3.39871527  -0.95398368
N   -1.82548208   4.07333908  -0.64192989
C   -1.36650911   3.06729587   2.82210226
H   -1.94120098   3.18643940   3.71677217
H   -1.46960191   3.94092860   2.21297434
H   -0.33626383   2.92888654   3.07574890
C   -1.87378981   1.83764398   2.04607229
N   -2.25148335   0.92211225   1.46828271
C    3.30898778   0.67766888   1.41440044
H    3.70422678   1.04690743   0.49117284
H    3.88933093  -0.15972762   1.74130717
H    3.34922878   1.44997457   2.15387571
C    1.84695919   0.23992273   1.20836475
N    0.75841244  -0.08599917   1.05496181
C    1.17398878   2.39438360  -2.21097815
H    0.81808139   3.40122514  -2.14389451
H    1.54654018   2.21276166  -3.19744560
H    1.95968420   2.24570705  -1.50000903
C    0.01921775   1.42066560  -1.91101628
N   -0.84056177   0.69568830  -1.68768103
C    1.07011974  -4.97403915   0.46003582
H    0.04283597  -4.70191085   0.58467296
H    1.27746028  -5.85509806   1.03068824
H    1.26552607  -5.16495924  -0.57450030
C    1.96898764  -3.82285000   0.94829811
N    2.63823564  -2.96573736   1.31183158
C    4.85895576  -2.17550765  -1.18587339
H    5.76905596  -1.80809721  -1.61205102
H    4.68839820  -3.17797299  -1.51884856
H    4.93398580  -2.16208282  -0.11859210
C    3.68657795  -1.28082348  -1.62934886
N    2.81368938  -0.61469044  -1.95953651
Na  -1.32580909  -0.85364716   0.11122524
