61
Energy:   -589.03955963
C    2.21434114  -2.51303987  -3.79233838
H    2.50290465  -1.54611347  -4.14826621
H    1.22076867  -2.73294032  -4.12302951
H    2.88899337  -3.25001355  -4.17523949
C    2.25803223  -2.52750765  -2.25302627
N    2.29056223  -2.53827957  -1.10693844
C   -2.41586594  -1.96588782   6.31807985
H   -1.95269916  -2.90996809   6.51578962
H   -3.47213203  -2.10160058   6.21423818
H   -2.22037907  -1.29589353   7.12912340
C   -1.84360025  -1.37608292   5.01568124
N   -1.41752243  -0.93694636   4.04598627
C   -2.65845667  -0.14546464  -1.67147433
H   -2.07540945   0.71197088  -1.40735233
H   -3.03854338  -0.60565437  -0.78340981
H   -3.47461361   0.15624168  -2.29417830
C   -1.77591062  -1.15143500  -2.43353477
N   -1.11881497  -1.90042566  -3.00092341
C   -0.38953508   3.52536181  -2.21255112
H   -0.72654968   2.51943309  -2.35193816
H    0.61985475   3.61419939  -2.55626487
H   -1.01558603   4.19153797  -2.76858045
C   -0.45620754   3.88649245  -0.71697783
N   -0.50584821   4.15537063   0.39654446
C   -3.38103574   3.57559100   2.19284935
H   -2.55255719   4.23822991   2.33225219
H   -3.94332897   3.51163883   3.10094380
H   -4.00837320   3.94860749   1.41041373
C   -2.86124570   2.17706225   1.81135801
N   -2.47423839   1.13579402   1.52732037
C    1.31639025   4.31131846   3.37577894
H    2.37501955   4.33931501   3.22274176
H    1.09245823   4.61708543   4.37640879
H    0.83849326   4.97406074   2.68491989
C    0.80286363   2.87709245   3.15019928
N    0.42051972   1.80924600   2.98224497
C    2.90955870   0.89934519  -1.04744237
H    2.90801989   0.93067190  -2.11698267
H    3.50525638   0.07475776  -0.71563078
H    3.31787204   1.81123035  -0.66450010
C    1.46674553   0.72861439  -0.53681419
N    0.39250554   0.60149754  -0.15662829
C   -0.39913070  -0.15057447  -6.03591011
H    0.28270622  -0.32052900  -6.84282649
H   -1.17122947   0.51745087  -6.35607369
H   -0.83432306  -1.08054737  -5.73481693
C    0.35713192   0.47104277  -4.84710446
N    0.92020382   0.93386506  -3.96198463
C   -0.50037311  -4.42626296  -0.50247102
H   -1.13173290  -5.23389949  -0.19586341
H    0.52038904  -4.67455087  -0.29925477
H   -0.62385165  -4.25545458  -1.55150708
C   -0.88310530  -3.15235520   0.27359283
N   -1.16806681  -2.20387298   0.85140765
C    3.65593301  -3.01984010   2.02155994
H    4.56873305  -2.48447205   1.86320175
H    3.46359901  -3.65338536   1.18100826
H    3.74112032  -3.61639597   2.90573374
C    2.49639239  -2.01994203   2.18669440
N    1.63306169  -1.27547247   2.30964451
Na  -0.49016393  -0.17931704   1.96611755
