61
Energy:   -589.10868402
C    0.71915648  -1.51097128  -2.67816490
H    0.22159956  -2.45377928  -2.58623904
H    1.77772928  -1.66625215  -2.69267622
H    0.41602170  -1.03484154  -3.58718022
C    0.34799981  -0.61581348  -1.48127926
N    0.07165679   0.05067220  -0.59014349
C    0.09167701  -3.26548252   3.36015417
H   -0.30539073  -4.00931061   2.70139991
H   -0.29268654  -3.42083734   4.34657631
H    1.15908194  -3.33783385   3.37779203
C   -0.31991197  -1.86719701   2.86317114
N   -0.62635868  -0.82610989   2.49314469
C    2.88098171   0.24005634   1.60908798
H    1.83527720   0.46497830   1.58058611
H    3.43720262   1.14532428   1.73560815
H    3.08180880  -0.41929025   2.42751919
C    3.29643207  -0.43760726   0.29008341
N    3.60575374  -0.94215861  -0.69197545
C    0.05939191   4.18520687  -1.20854631
H   -0.83363399   3.89209197  -0.69718678
H    0.01135614   3.85816759  -2.22620881
H    0.15314107   5.25071932  -1.18037852
C    1.27889071   3.54422278  -0.52038784
N    2.18686300   3.06698098  -0.00802259
C   -6.28682085   1.46659067   2.99899593
H   -7.06194006   0.91129361   2.51346986
H   -6.42598610   2.51101331   2.81268044
H   -6.32384166   1.28422630   4.05269028
C   -4.91764996   1.02508304   2.44941238
N   -3.89823999   0.69636055   2.04022245
C    1.05146316   3.34568235   3.43625722
H    1.93745365   3.49531087   2.85528189
H    1.25346252   2.64727573   4.22131998
H    0.74079927   4.27801986   3.85949924
C   -0.06730715   2.79364253   2.53337016
N   -0.90028249   2.38262380   1.86112970
C    3.79488146   1.67949460  -2.94340103
H    4.35266754   2.30905834  -3.60478168
H    4.14335492   0.67169927  -3.03179735
H    3.92626675   2.01524177  -1.93597320
C    2.30144590   1.74064052  -3.31422634
N    1.18951524   1.78616644  -3.59032263
C   -2.22769697   1.87483950  -3.81114333
H   -1.80008237   2.83545040  -4.00931659
H   -3.16365383   1.78870828  -4.32248007
H   -1.56215196   1.11050282  -4.15427360
C   -2.45395181   1.71631564  -2.29612553
N   -2.62240883   1.59828742  -1.16812592
C   -2.45312382  -4.37719041  -0.45479062
H   -3.24489341  -4.66297644  -1.11534149
H   -2.56117196  -4.89380008   0.47598279
H   -1.51172535  -4.63022843  -0.89597059
C   -2.51296914  -2.85815214  -0.20873928
N   -2.55752669  -1.72715909  -0.02554288
C    3.40028050  -4.32953236  -0.58182439
H    3.74441687  -3.69990728  -1.37557662
H    3.40423511  -5.34868356  -0.90772974
H    4.04705748  -4.22300407   0.26388853
C    1.96841176  -3.92222633  -0.18754819
N    0.90232041  -3.61896847   0.10600837
Na  -1.85864774   0.43736546   0.81808820
