61
Energy:   -592.20270532
C    1.06892796  -2.44304810  -3.87243502
H    2.06085187  -2.04660244  -3.81064523
H    0.47476649  -1.82003747  -4.50783173
H    1.10508351  -3.43317997  -4.27645327
C    0.44440933  -2.48525343  -2.46538307
N   -0.02057318  -2.51667722  -1.41776894
C    3.88496645   1.01460971  -0.36896831
H    4.52987527   0.58766391  -1.10836676
H    4.47143410   1.37776282   0.44900149
H    3.33460419   1.82443063  -0.80046636
C    2.90481331  -0.05911515   0.13898319
N    2.17504474  -0.85855212   0.51717618
C    0.78816342   5.42313201   1.92810132
H    1.14473445   5.72060887   2.89208513
H   -0.28070496   5.37598517   1.94212485
H    1.10415136   6.13596479   1.19535297
C    1.35855372   4.03689509   1.57511107
N    1.78323523   3.00477870   1.31229378
C    2.95756371  -4.67549322   2.48278961
H    3.05352112  -5.61713509   1.98378766
H    2.99500647  -4.82732554   3.54129992
H    3.75891351  -4.03142337   2.18629067
C    1.61222011  -4.02868578   2.10425197
N    0.61055066  -3.54710824   1.82241349
C   -0.29755874   2.86498046  -1.46464461
H   -0.68942847   2.86645675  -2.46030325
H    0.76210727   3.00948473  -1.49819383
H   -0.74786679   3.65656813  -0.90294121
C   -0.61057977   1.51558068  -0.79178649
N   -0.84363816   0.51089120  -0.29081304
C   -3.32590203  -1.20489837  -2.22892301
H   -4.28001397  -1.26631747  -2.70933771
H   -3.42526417  -0.67438676  -1.30502708
H   -2.95951644  -2.19153914  -2.03604827
C   -2.33700649  -0.46001441  -3.14480155
N   -1.60072881   0.09458555  -3.82671475
C   -3.30041171  -4.53534448   2.17709128
H   -2.46609283  -5.11964380   2.50482059
H   -3.86466613  -5.09134020   1.45779663
H   -3.92308886  -4.30124441   3.01516611
C   -2.79291212  -3.23109884   1.53445029
N   -2.41505561  -2.26002867   1.05597485
C    1.06541576   1.67517388  -5.45964423
H   -0.00159688   1.60300643  -5.49393803
H    1.48824925   1.08525724  -6.24584350
H    1.35795826   2.69692000  -5.58355075
C    1.57151057   1.15752848  -4.10041235
N    1.94832116   0.77211795  -3.08840244
C   -3.48773832   0.98388913   2.08549296
H   -3.51576139   0.54972998   1.10793441
H   -4.47021165   1.30597215   2.36100664
H   -3.14050895   0.25634017   2.78905771
C   -2.53312795   2.19232375   2.08330545
N   -1.82237713   3.09205826   2.08167675
C    0.76189773   1.70970154   4.31313967
H    0.74398886   1.45121947   5.35129499
H    0.15002324   2.57213924   4.14970802
H    1.76726279   1.92422016   4.01628625
C    0.22133990   0.53170836   3.48143701
N   -0.18112997  -0.34536110   2.86219658
Na  -0.12600427  -1.50883058   0.76074529
