61
Energy:   -590.62501130
C    1.13459814  -2.28576885  -3.43685491
H    1.26749512  -3.09577340  -4.12324488
H    1.46379755  -1.37501569  -3.89188846
H    0.09927056  -2.20220324  -3.17992560
C    1.95962402  -2.55104399  -2.16384219
N    2.57389329  -2.74855339  -1.21602635
C   -4.23388992  -2.54880456   4.14088348
H   -4.78458932  -1.76632101   4.61978831
H   -3.81441086  -3.19549743   4.88299179
H   -4.88893500  -3.11006667   3.50779589
C   -3.10225345  -1.93644268   3.29470865
N   -2.25969866  -1.48051143   2.66469303
C   -4.60631004   0.90529457  -2.31312026
H   -4.13319805   1.78899598  -2.68746908
H   -5.62178095   1.12534160  -2.05758706
H   -4.58456918   0.14359453  -3.06427902
C   -3.85700787   0.41299967  -1.06100525
N   -3.29911835   0.04646374  -0.12874871
C   -0.30963304   1.63388183  -3.65953950
H   -0.71414281   2.60876440  -3.48382380
H   -0.91250214   1.12219339  -4.38038823
H    0.69006400   1.72402751  -4.03018580
C   -0.29857694   0.83748472  -2.34149952
N   -0.29034516   0.24453088  -1.36015883
C   -3.13319294   3.87486005   1.21756879
H   -2.40633023   4.42453785   1.77830500
H   -3.35678127   2.95934506   1.72426363
H   -4.02575501   4.45734131   1.12297695
C   -2.57290865   3.56305398  -0.18259495
N   -2.15575153   3.33090019  -1.22508050
C    0.97471912   2.01357806   3.87603601
H    0.71542787   1.43097520   4.73524619
H    0.93314520   3.05350789   4.12446440
H    1.96548215   1.76168988   3.56006124
C   -0.01821984   1.71789929   2.73662990
N   -0.75750803   1.49775300   1.88829026
C    1.60552925   3.40953202  -0.78440393
H    0.54587106   3.30341825  -0.68065146
H    1.88905059   3.18920867  -1.79235847
H    1.88852896   4.41341921  -0.54561369
C    2.31527936   2.43450863   0.17329339
N    2.84372058   1.70855939   0.88634258
C    3.63923177  -1.56477566   1.89327346
H    4.10564065  -0.60416300   1.82555150
H    3.99530074  -2.19073252   1.10188735
H    3.87759673  -2.01133311   2.83596517
C    2.11240839  -1.40372061   1.77297527
N    0.97561899  -1.28380781   1.68340780
C    0.25972044  -5.03723725   0.27684861
H   -0.02041262  -5.41038792   1.23975267
H    1.30391689  -4.80368066   0.27480438
H    0.05909182  -5.78076539  -0.46599266
C   -0.55120590  -3.76619914  -0.03693570
N   -1.15497742  -2.81985349  -0.27056238
C    5.04125416  -0.09401306  -1.37871219
H    5.95243103   0.09496689  -1.90686318
H    4.94366625  -1.14452320  -1.20037506
H    5.05624168   0.42655672  -0.44400284
C    3.84872130   0.39671593  -2.22052597
N    2.96082638   0.76208597  -2.84729458
Na  -1.13315882  -0.60679105   0.72274930
