61
Energy:   -589.07451472
C    2.50007225  -4.19568775   1.54265930
H    3.46448303  -3.87976333   1.88178137
H    2.60097882  -4.71091179   0.61031754
H    2.06439543  -4.85148674   2.26723674
C    1.59385894  -2.96498276   1.35360197
N    0.91914195  -2.04866695   1.21284020
C   -4.45436917  -2.18870791  -1.44294077
H   -4.14131884  -2.46664000  -2.42765059
H   -5.12018368  -1.35324397  -1.50285848
H   -4.95732472  -3.01330568  -0.98253517
C   -3.22277024  -1.80433194  -0.60209644
N   -2.30578886  -1.51814655   0.02395038
C   -3.82630872   0.88946706   2.36681196
H   -4.58168729   0.69302303   3.09873623
H   -3.32928757   1.80672244   2.60453372
H   -3.11595361   0.08928872   2.36375513
C   -4.47684866   1.00369638   0.97564358
N   -4.96120521   1.08874531  -0.06014451
C    4.38764137   0.45402663  -1.51004620
H    4.34027965  -0.25339356  -2.31142858
H    5.08407018   0.11212231  -0.77316938
H    4.70678028   1.40215683  -1.88964936
C    2.99414601   0.59967105  -0.87086048
N    1.95662537   0.70810994  -0.39495766
C    6.38047887  -3.26127373  -0.23289499
H    6.53763928  -4.29160941   0.00919833
H    6.43840607  -2.67254582   0.65870076
H    7.13181289  -2.93840784  -0.92293404
C    4.98955169  -3.09037390  -0.87142050
N    3.95394318  -2.96313120  -1.34683176
C   -0.11299318   3.85807497   1.74583457
H    0.89395683   4.09620876   2.01831241
H   -0.78724095   4.30548010   2.44591862
H   -0.31560929   4.23456446   0.76496686
C   -0.30022027   2.32954525   1.75778877
N   -0.43961935   1.19148539   1.76668922
C   -3.17511762   2.94049241  -2.49332286
H   -3.06177454   2.90541578  -3.55672455
H   -3.01934983   3.94217538  -2.15088060
H   -4.16208427   2.62266965  -2.22915510
C   -2.14194006   2.00672735  -1.83588316
N   -1.37269241   1.31149682  -1.34638942
C    2.75642382   0.40682080   3.20317225
H    2.61582767   1.34757430   2.71315617
H    3.14449405   0.57141463   4.18664033
H    1.81857905  -0.10385701   3.27065894
C    3.75004330  -0.44906028   2.39583844
N    4.48983817  -1.08630265   1.79474171
C    1.63115271  -3.32995139  -3.70930766
H    1.88122726  -4.23008498  -3.18765412
H    2.52671805  -2.85813810  -4.05608427
H    1.00489528  -3.56409581  -4.54469805
C    0.88362887  -2.37649570  -2.75866032
N    0.32706340  -1.66660460  -2.05086016
C   -5.87791697   4.69559420   0.45084875
H   -6.36686738   3.81199533   0.09718124
H   -5.99758177   5.48072344  -0.26619484
H   -6.31114902   4.99433943   1.38249266
C   -4.37843305   4.40734655   0.65100190
N   -3.26199912   4.19273307   0.80002501
Na  -0.19251810  -0.36870642  -0.08680105
