61
Energy:   -593.73829351
C    3.38121149  -1.79877759  -4.22794691
H    3.47927160  -0.73594741  -4.15260502
H    3.05050077  -2.05757415  -5.21209824
H    4.32834413  -2.25873795  -4.03748607
C    2.35288964  -2.29398678  -3.19406005
N    1.58725729  -2.66269252  -2.42428428
C   -2.33041884  -2.77913883   6.05867169
H   -2.62343639  -3.79780044   5.91248882
H   -3.17658565  -2.20676956   6.37693923
H   -1.56614285  -2.73158698   6.80601374
C   -1.79083007  -2.20524960   4.73538219
N   -1.38908170  -1.77796297   3.75013301
C   -4.63263504  -0.46214971  -1.01048611
H   -4.52314451  -1.46548590  -1.36577260
H   -4.34997452   0.22249462  -1.78266760
H   -5.65265062  -0.28995124  -0.73696281
C   -3.72897785  -0.25130838   0.21855808
N   -3.05616399  -0.09432742   1.13363734
C    0.69597999   3.67473313  -2.76123958
H    1.39787102   2.93309693  -3.08096587
H    0.97317461   4.62589650  -3.16540599
H   -0.28230661   3.41209867  -3.10602583
C    0.69482994   3.75116809  -1.22313803
N    0.69397367   3.80807739  -0.07795151
C   -2.72144763   3.52418622   0.72918442
H   -3.65342843   4.03360653   0.85881041
H   -1.91571179   4.21638365   0.85783736
H   -2.63874738   2.74179707   1.45439265
C   -2.65877565   2.92080936  -0.68630439
N   -2.61211352   2.47156787  -1.74020016
C    0.56759355   3.85154068   3.37013216
H    1.62175178   3.83447197   3.55277739
H    0.05741316   4.17031292   4.25500465
H    0.35495143   4.53108309   2.57144290
C    0.09071696   2.43927751   2.98321943
N   -0.26433933   1.38778339   2.69514532
C    3.11466022   1.57653169   0.66091154
H    3.25330550   2.63668910   0.70267204
H    3.93840168   1.08995138   1.14006569
H    2.20587737   1.31566843   1.16187379
C    3.03751056   1.12645673  -0.80982993
N    2.98006913   0.79135546  -1.90486380
C   -0.41138736   0.07389843  -3.12322816
H   -1.19401706   0.71910322  -3.46396516
H   -0.63264418  -0.93449479  -3.40445340
H    0.51551204   0.37261235  -3.56654135
C   -0.30058327   0.16669367  -1.59002514
N   -0.21808459   0.23578394  -0.44848580
C   -0.55461601  -4.86758293  -1.10660243
H   -1.19414277  -5.68986901  -0.86216163
H    0.46137393  -5.13230062  -0.90023364
H   -0.65787499  -4.63190524  -2.14520375
C   -0.94782650  -3.64230760  -0.26062024
N   -1.24058959  -2.73003442   0.36925196
C    3.54068754  -2.62707223   0.32369319
H    3.89172635  -1.95215593  -0.42874280
H    3.19759327  -3.52914572  -0.13831205
H    4.33844967  -2.85370241   0.99979483
C    2.38107016  -1.97395650   1.09850115
N    1.51768231  -1.48768215   1.67538089
Na  -0.78297207  -0.73347301   1.68695448
