61
Energy:   -589.60853728
C   -1.73251949   1.43803142  -4.80820747
H   -1.80956440   0.84663948  -5.69658792
H   -0.93091933   2.13875558  -4.91461200
H   -2.64956873   1.96637319  -4.65080750
C   -1.45547153   0.52025593  -3.60299687
N   -1.24919673  -0.16306964  -2.70566280
C    2.92501815   0.98318940   1.78121010
H    3.90285680   1.07614645   2.20558108
H    2.94414792   0.25515388   0.99731123
H    2.23545018   0.67375577   2.53860428
C    2.48259049   2.34258317   1.20857903
N    2.15318299   3.35471362   0.78222916
C    2.63901238  -0.34797454  -3.98816737
H    2.39730217  -1.27968646  -4.45548873
H    3.69872719  -0.20176835  -4.01113188
H    2.15739155   0.45009366  -4.51355067
C    2.15487037  -0.36605513  -2.52636041
N    1.79440463  -0.37951696  -1.43797868
C   -0.95830967   4.11492848  -0.81367085
H   -1.00038187   4.15555531  -1.88207132
H   -0.11844817   4.68067017  -0.46802929
H   -1.85778438   4.52622748  -0.40540934
C   -0.81195843   2.65024539  -0.36102888
N   -0.70299328   1.55972225  -0.02401637
C   -3.29275703  -1.15133584   3.25142940
H   -4.34434948  -0.95909893   3.29723842
H   -2.76884478  -0.40355007   3.80931066
H   -3.08799193  -2.11560031   3.66755963
C   -2.82799984  -1.11644571   1.78364759
N   -2.48196698  -1.09046843   0.69081732
C   -0.58651154   3.67332829   3.25274327
H   -0.37882591   4.12461904   4.20042651
H   -1.56953220   3.95028633   2.93358232
H    0.13016744   4.00955575   2.53286728
C   -0.50209050   2.14127549   3.38422452
N   -0.43923520   1.00059255   3.48211830
C    3.23350268   4.16509423  -2.28223271
H    3.71773513   4.66192318  -3.09683697
H    3.92635865   3.50381904  -1.80519516
H    2.88912077   4.89108980  -1.57567016
C    2.03502564   3.35688153  -2.81331182
N    1.14270501   2.75513043  -3.20872435
C    0.43165798  -2.42759529   4.02453910
H    0.05770580  -1.62298573   4.62258877
H    1.38634693  -2.73517775   4.39717985
H   -0.25026724  -3.25100536   4.06781653
C    0.57729398  -1.95784695   2.56518080
N    0.68572660  -1.60809797   1.47862221
C   -3.46021201  -4.62688111  -0.05382131
H   -4.45826112  -4.50857009   0.31333078
H   -3.35313473  -5.59845489  -0.48911195
H   -3.26175700  -3.88044481  -0.79432624
C   -2.46350370  -4.47313059   1.11002289
N   -1.72140906  -4.35865635   1.97655780
C    1.13835053  -5.16872258  -0.20545022
H    0.73068940  -5.41609785   0.75242141
H    2.17020728  -4.90710594  -0.09715675
H    1.05075852  -6.01154364  -0.85881030
C    0.36604109  -3.97618509  -0.79958191
N   -0.20897840  -3.08828673  -1.24193997
Na  -0.41960357  -0.77527721  -0.51979211
