61
Energy:   -589.00204620
C    3.29719619   0.16755325  -0.44937001
H    3.51290086   0.65152797  -1.37896139
H    3.56441096  -0.86645202  -0.51516107
H    3.85947461   0.63213044   0.33351574
C    1.79288989   0.29054240  -0.14353307
N    0.67286547   0.38211341   0.08417643
C   -1.18844541  -2.38767816  -2.03627264
H   -1.40806440  -2.36050230  -3.08313899
H   -1.54612013  -3.30644530  -1.62053856
H   -0.13046969  -2.31883779  -1.89188613
C   -1.88026942  -1.20352976  -1.33572134
N   -2.39536384  -0.32187745  -0.81412906
C    1.24837763  -5.68526232  -0.50694211
H    1.12262501  -6.18311884  -1.44567815
H    0.29682819  -5.57902778  -0.02927384
H    1.89879067  -6.26103987   0.11783160
C    1.86277981  -4.29292769  -0.74255670
N    2.32023016  -3.25627127  -0.91798248
C    0.53098570   1.90263967   4.55678829
H    0.91945879   2.33865166   5.45338317
H    0.04182362   0.98041284   4.79155888
H   -0.17075707   2.57453672   4.10844631
C    1.68588964   1.63539562   3.57374327
N    2.54576812   1.43642028   2.84182157
C    3.24803995  -2.20612358  -4.06362332
H    2.79951099  -3.09515843  -4.45520855
H    3.81257527  -2.44763856  -3.18734170
H    3.89711662  -1.78003771  -4.79986337
C    2.14689037  -1.19222027  -3.70158785
N    1.32703445  -0.43732317  -3.43203599
C    1.33000351  -2.06624409   2.49465693
H    1.49852999  -2.57119529   3.42283972
H    1.11848299  -1.03444816   2.68321814
H    2.20369273  -2.14504382   1.88199321
C    0.13442129  -2.71109510   1.76915688
N   -0.75574401  -3.19121600   1.22898911
C   -0.63490828   2.04861329  -4.48524510
H    0.39979493   2.14252835  -4.74111502
H   -1.20500379   2.76806073  -5.03505013
H   -0.97441384   1.06343047  -4.72824691
C   -0.81496216   2.29590655  -2.97593180
N   -0.94902045   2.48002762  -1.85217944
C   -3.52685731  -1.64095515   2.69994976
H   -3.36447274  -2.13417362   3.63550680
H   -3.41517173  -2.34463786   1.90166656
H   -4.51540012  -1.23199040   2.67921231
C   -2.49854895  -0.50691368   2.53222417
N   -1.73292664   0.33743174   2.40734484
C    2.30959977   4.45103262   0.77996725
H    2.47623334   4.51626437  -0.27496320
H    3.06078214   3.83036629   1.22200510
H    2.35729510   5.42974769   1.20978239
C    0.91998285   3.84182404   1.04346242
N   -0.11465012   3.38824056   1.23964655
C   -5.68649648   4.24568450   0.59378313
H   -6.47335767   3.76400329   0.05181186
H   -5.43745036   5.16968890   0.11514863
H   -6.00950649   4.43859160   1.59545697
C   -4.44754968   3.33142613   0.62103103
N   -3.52509747   2.65071922   0.64131833
Na  -1.41225338   1.57387324   0.33210052
