45
Energy:   -373.32060830
O    0.21675833  -2.10155512   1.38839373
H   -0.43228102  -1.66389698   1.93924319
H   -0.20097342  -2.16487181   0.52948568
O    1.83923486  -2.86296381  -0.98301249
H    0.94274401  -2.70913070  -1.28112553
H    1.76053201  -2.98024660  -0.03629053
O   -1.85247050   0.33425910  -1.86814306
H   -2.07633129   0.73070178  -1.02615054
H   -1.01500352   0.73230034  -2.10572270
O    0.51079556   2.49601951   0.29758676
H    1.00357894   1.80219220   0.73576487
H    0.59601999   2.29857967  -0.63514373
O    2.71938753  -0.28624684  -1.30619791
H    2.54698337  -0.02399536  -0.40191210
H    2.53777179  -1.22592074  -1.32233904
O    1.75972745   0.21269944   1.28467605
H    1.23645760  -0.59622687   1.38591918
C    2.83993254   0.14417512   2.20173394
H    3.41891417   1.06289518   2.07438036
H    3.50795646  -0.70983154   2.00887650
H    2.50546576   0.09395672   3.24977373
O   -0.85105791  -2.14831671  -1.18625792
H   -1.25535133  -1.32414697  -1.49563527
C   -1.80103033  -3.18686558  -1.36374707
H   -1.32939550  -4.10780768  -1.01031894
H   -2.08203283  -3.33038289  -2.41883840
H   -2.71987841  -3.02735232  -0.77804146
O   -2.06919946   1.59851513   0.62607106
H   -1.20074244   2.02428005   0.57194239
C   -3.05287897   2.61961794   0.57855854
H   -4.02481533   2.12265367   0.64061842
H   -3.02315388   3.19538879  -0.35972802
H   -2.97535240   3.32430962   1.42127831
O    0.70888083   1.35328935  -2.25744318
H    1.44929595   0.75830391  -2.06717744
C    0.95203938   1.95296413  -3.51990025
H    0.10867273   2.61985484  -3.71858258
H    1.00504165   1.21679253  -4.33722483
H    1.87405427   2.55501218  -3.53418413
O   -1.56614720  -0.39170463   2.59285950
H   -1.90230594   0.25709343   1.95687078
C   -1.07765077   0.32140913   3.71774784
H   -0.70290452  -0.42440958   4.42400906
H   -1.86153598   0.90678836   4.22334893
H   -0.24728406   0.99881633   3.46400004
