45
Energy:   -372.61129142
O   -1.85920996  -0.72390668   1.59337838
H   -1.79196623   0.05610528   1.04265934
H   -1.96102526  -1.44676956   0.97423804
O    0.99359417  -2.67298466  -0.11269831
H    0.05302535  -2.82463868  -0.20523580
H    1.08482041  -2.24283806   0.73752726
O   -1.31226983  -0.51462239  -2.26443050
H   -0.36301568  -0.60053982  -2.35255880
H   -1.43137456   0.19060408  -1.62826893
O    2.62818690   1.34071067  -1.22748399
H    2.75031512   1.14599204  -0.29829014
H    2.23315527   0.54732715  -1.58904235
O    1.41689781  -0.95810801  -2.15689168
H    1.95875241  -1.42109741  -2.79584885
H    1.34443120  -1.56424952  -1.41961771
O    2.56466396   0.77275473   1.47436842
H    2.02920274   0.04483208   1.82341450
C    2.12037510   1.96930112   2.09357592
H    2.73394468   2.77889261   1.68912667
H    2.25048271   1.95591593   3.18704296
H    1.06589401   2.19666321   1.87187017
O   -1.77925520  -2.57497622  -0.50621215
H   -1.72960406  -1.92906039  -1.22645570
C   -2.68241929  -3.59423502  -0.90362868
H   -2.72645566  -4.31319742  -0.08104795
H   -2.34942349  -4.12895987  -1.80693398
H   -3.70101865  -3.21467963  -1.08018005
O   -1.55536333   1.38084690  -0.21477015
H   -0.85795744   2.03827995  -0.35558951
C   -2.80314376   2.04705764  -0.32312621
H   -3.57741414   1.29208047  -0.16188090
H   -2.96245543   2.49243504  -1.31762915
H   -2.93165544   2.83521297   0.43520963
O    0.54959820   3.11259553  -0.80214003
H    1.31945202   2.55468779  -0.98784765
C    0.73375485   4.34174670  -1.48610457
H   -0.14220890   4.95799970  -1.26609330
H    0.79664509   4.21537424  -2.57828228
H    1.62856137   4.88700757  -1.14729902
O    0.76107938  -1.24875750   2.28463179
H   -0.17698084  -1.03216684   2.17713861
C    0.89994013  -1.97015403   3.49823737
H    1.96234868  -2.20607047   3.60367319
H    0.33841968  -2.91750238   3.49644187
H    0.59120693  -1.38489238   4.37853842
