45
Energy:   -379.83807908
O   -0.90129308  -0.87521905   2.65053223
H   -1.37845246  -0.09056993   2.38057571
H   -0.92908916  -1.44844974   1.88446056
O    1.50283517   0.40300320   2.46520702
H    1.15927425   1.20401438   2.06950660
H    0.72493279  -0.11385013   2.67487908
O    1.08012832  -1.92001891  -1.54365485
H    0.65130464  -1.20433843  -2.01284943
H    1.74132931  -1.48951465  -1.00170357
O   -2.00745053   1.35130069   1.50485753
H   -2.26100285   0.94352765   0.67680909
H   -1.20275344   1.82795181   1.30114659
O    1.79479808   1.73628441  -1.43715625
H    2.25748214   1.02345329  -0.99667116
H    1.07138946   1.30683928  -1.89376187
O    0.45992773   2.46543215   0.87180606
H    0.92520296   2.34981200   0.03003756
C    0.71973349   3.78272587   1.32981479
H    0.18830686   3.89597062   2.27862803
H    0.34958918   4.55457468   0.63698008
H    1.78997426   3.96554888   1.51403683
O   -2.54176831  -0.28603810  -0.72123869
H   -2.13817911  -1.09132910  -0.36480438
C   -3.94995058  -0.44170420  -0.64826921
H   -4.38868022   0.47407777  -1.05366394
H   -4.31118330  -0.56506638   0.38472160
H   -4.31565345  -1.28992901  -1.24789694
O    2.70495440  -0.40892679   0.11941352
H    2.36033844  -0.20959143   1.00254914
C    4.08275278  -0.71856209   0.25480694
H    4.45498656  -0.94050721  -0.74901953
H    4.25981422  -1.60224573   0.88768118
H    4.66965115   0.12125090   0.65859126
O   -0.37530257   0.31059586  -2.44167894
H   -1.20937776   0.24106931  -1.95392089
C   -0.69081716   0.59045268  -3.79617681
H    0.25979894   0.66552549  -4.33113317
H   -1.22811048   1.54381747  -3.91941961
H   -1.28585246  -0.20724312  -4.26776110
O   -0.94703069  -2.37925657   0.27588005
H   -0.20090145  -2.34211616  -0.34083303
C   -1.03471116  -3.70768616   0.76590121
H   -1.88005654  -3.73173818   1.45893647
H   -0.13294014  -4.01822350   1.31649445
H   -1.22568934  -4.44321148  -0.03116038
