45
Energy:   -375.78444386
O   -0.49508674   0.96634564   2.87866721
H   -0.91912951   1.22791451   2.06135375
H   -0.64954848   0.02356474   2.93814501
O    2.34688866  -1.17593012  -0.15879028
H    1.53119082  -1.67130187  -0.08479219
H    2.28513619  -0.50845237   0.52450464
O   -2.21737539  -0.71994297  -0.88439477
H   -2.03414777   0.08582839  -0.40128817
H   -1.80015284  -0.58936246  -1.73592628
O    1.19258799   2.18464659  -0.76580776
H    1.59370832   1.88063853   0.04838719
H    1.52483068   1.58632750  -1.43503186
O    2.10907664   0.19114454  -2.45239403
H    2.95208507   0.15961660  -2.90469329
H    2.23383449  -0.35196138  -1.67412461
O    1.95863471   0.93448744   1.62068096
H    1.16136407   0.95505192   2.17055359
C    3.07815375   1.07699747   2.48027493
H    3.96747441   1.05172528   1.84470017
H    3.15871712   0.25866562   3.21281834
H    3.07593462   2.03329024   3.02642193
O   -0.15700748  -2.36967733  -0.08177719
H   -0.91230201  -1.84029914  -0.37793961
C   -0.07212528  -3.50769811  -0.92453309
H    0.78365691  -4.09282295  -0.57704069
H    0.10070614  -3.24358482  -1.97959271
H   -0.96764597  -4.14618477  -0.86836536
O   -1.31589227   1.63742931   0.28655232
H   -0.49128901   1.89269271  -0.15309906
C   -2.14847331   2.78483215   0.33955509
H   -3.07271152   2.47959497   0.83765067
H   -2.40943519   3.16739010  -0.65960738
H   -1.70283449   3.60710213   0.92098045
O   -0.61936646  -0.20262488  -3.06835510
H    0.34081351  -0.12603712  -2.96534051
C   -1.09534293   1.02640387  -3.59320604
H   -2.17825817   0.92277618  -3.70293792
H   -0.67251814   1.25818685  -4.58329349
H   -0.90006164   1.87875460  -2.92377286
O   -0.86871586  -1.75020047   2.61091630
H   -0.52982277  -2.13120215   1.78725832
C   -2.26486336  -1.99752984   2.65711264
H   -2.63035429  -1.56188769   3.59098496
H   -2.50638573  -3.07195774   2.66410873
H   -2.80828877  -1.52463716   1.82414285
