45
Energy:   -371.41378227
O   -1.37974570  -1.29974422   1.97731154
H   -1.81860784  -0.50738550   1.66779654
H   -0.97203651  -1.66971047   1.19428534
O    0.81344794   0.12066351   2.76415550
H    0.67984153   0.81970277   2.12405763
H    0.04325114  -0.44007602   2.67141974
O    2.12466951  -0.98923656  -1.35195221
H    1.99879661  -0.05681777  -1.52797230
H    2.50593080  -1.01847946  -0.47444636
O   -2.26596375   0.98079142   0.75339218
H   -2.34256405   0.50928478  -0.07609304
H   -1.39060769   1.36734705   0.72976267
O    1.61783375   1.68511822  -1.84161268
H    2.18046487   2.00424896  -2.54718595
H    0.74050921   1.66668205  -2.22396542
O    0.35689219   1.92186175   0.66827455
H    0.89066686   1.89915691  -0.13980489
C    0.49858381   3.21172001   1.24161818
H   -0.10895241   3.21991896   2.15063838
H    0.13426945   4.01339976   0.58028470
H    1.53835361   3.43973682   1.52386705
O   -2.24482870  -0.66943206  -1.50551384
H   -1.58358990  -1.32349733  -1.23461693
C   -3.51507252  -1.29989245  -1.46634610
H   -4.24800282  -0.54922301  -1.77423208
H   -3.78613689  -1.64792658  -0.45730017
H   -3.58810429  -2.15266007  -2.15933317
O    2.81782788  -1.09240134   1.29788342
H    2.16536405  -0.70086047   1.89739153
C    3.84385943  -1.66486440   2.09291743
H    4.57015882  -2.10130259   1.40190650
H    3.47437632  -2.46671329   2.75117113
H    4.36717735  -0.92000279   2.71267293
O   -0.97278481   1.57907076  -2.67152808
H   -1.48817246   0.79306634  -2.43701606
C   -1.78708626   2.71543150  -2.43042395
H   -1.19125392   3.59174050  -2.69977791
H   -2.07883334   2.81288306  -1.37299113
H   -2.70087479   2.72189380  -3.04501819
O   -0.16845864  -2.20891552  -0.40282081
H    0.63863024  -1.82476489  -0.77626306
C    0.14149737  -3.52341532   0.03140414
H   -0.77842507  -3.94136593   0.44919021
H    0.91228719  -3.54083255   0.81776095
H    0.47019774  -4.17680125  -0.79189424
