45
Energy:   -372.31357515
O   -1.07897485  -1.13904982   1.19923792
H   -1.60953658  -1.24272907   0.40930963
H   -1.14944802  -0.20922917   1.41533730
O    1.37302240  -1.26229270   0.03958889
H    1.33550188  -0.44550340  -0.45808498
H    0.51688134  -1.32482882   0.46307865
O   -1.61971372   1.49417040  -1.15911802
H   -1.96764198   0.60983490  -1.27369765
H   -1.61033827   1.62743612  -0.21128670
O    1.09345108   1.18846718  -1.10942149
H    0.16086124   1.34057002  -1.26230301
H    1.31019282   1.75294699  -0.36738549
O    1.65481780  -3.25384316  -1.79410915
H    1.59571603  -2.56728264  -1.12974971
H    2.30433869  -3.86643982  -1.44902975
O    1.61542566   2.42023043   1.39238473
H    2.04080307   1.66505728   1.82504032
C    2.60383923   3.41981346   1.20158083
H    2.10775968   4.26300430   0.71329865
H    3.42721492   3.08503964   0.55138370
H    3.03382045   3.77911684   2.14962860
O   -2.33814206  -1.19162303  -1.28237858
H   -1.79283980  -1.59865824  -1.97186467
C   -3.66027263  -1.68337908  -1.43297907
H   -4.26095787  -1.21487210  -0.64865537
H   -3.72484732  -2.77539177  -1.30603134
H   -4.10374663  -1.41983899  -2.40594092
O   -1.08553741   1.63139704   1.58096588
H   -0.20323370   2.03007237   1.61292571
C   -1.89823267   2.30830400   2.52640607
H   -2.88820707   1.84676110   2.47727313
H   -2.00985079   3.38043915   2.30091784
H   -1.52518978   2.20709906   3.55760629
O   -0.56468122  -2.22335761  -3.15955320
H    0.20328577  -2.69875272  -2.80933974
C   -0.08263721  -1.11763407  -3.90624108
H   -0.96051594  -0.59331733  -4.29341819
H    0.53888171  -1.42159518  -4.76303697
H    0.49486469  -0.40907088  -3.29206920
O    2.46164078  -0.06282093   2.31780371
H    2.22921235  -0.60529447   1.54960923
C    1.83592677  -0.63601072   3.45467187
H    2.10815320  -0.01273016   4.31076725
H    2.17950347  -1.66259153   3.65682086
H    0.73756221  -0.64643785   3.37552707
