45
Energy:   -372.12312795
O   -0.20964908  -3.25917393   0.60730070
H    0.38600423  -2.89071299   1.25973116
H   -1.05040760  -2.83735725   0.78457917
O    0.42104023  -1.78636452  -1.60551401
H    1.09164570  -1.25723912  -1.17360375
H    0.20148480  -2.46409288  -0.96620851
O   -2.30320810  -1.58064362   1.13233397
H   -2.26599337  -1.09955382   0.30565416
H   -1.90166595  -0.99158880   1.77109071
O    0.02634761   1.59453491   0.29031596
H    0.10329387   2.28131008  -0.37199135
H    0.81132850   1.05939227   0.17344336
O   -1.62964732  -0.11054960  -1.08774877
H   -1.13764480   0.55102757  -0.60145562
H   -0.97053952  -0.75072263  -1.35605317
O    1.22198630  -1.69071523   2.48195554
H    0.54289410  -1.04656030   2.73159826
C    1.41348170  -2.56324243   3.58402613
H    2.18135513  -3.28220470   3.28578323
H    0.50286192  -3.12489652   3.84497370
H    1.76839701  -2.03875973   4.48498692
O   -1.21148397   1.32113807  -3.46247292
H   -1.56148660   0.78564414  -2.73503379
C   -0.59415114   0.44007385  -4.38722142
H   -0.20545207   1.05962722  -5.19996483
H   -1.30045997  -0.28603655  -4.81927334
H    0.24935067  -0.11496441  -3.94765965
O   -0.79941319   0.28663537   2.62663558
H   -0.55358748   0.90991138   1.92697852
C   -1.72642979   0.93996715   3.47888646
H   -1.99271604   0.22391903   4.26109610
H   -2.65019726   1.23407854   2.95645993
H   -1.30203489   1.83305171   3.96372281
O    0.12945119   3.23314160  -1.90908242
H   -0.28072037   2.67873491  -2.58938807
C   -0.15765269   4.58591098  -2.22550008
H    0.31162639   5.19650872  -1.44933467
H   -1.23730943   4.80297644  -2.22438917
H    0.25739444   4.89237168  -3.19843125
O    2.04237539  -0.30971444   0.14645440
H    1.99375532  -0.83643943   0.95800855
C    3.40960222  -0.20435147  -0.21703317
H    3.44615056   0.39182273  -1.13285289
H    3.87019380  -1.18224067  -0.42766421
H    4.01472353   0.30725917   0.54772829
