45
Energy:   -371.54360616
O   -1.65092062  -2.74378465   0.21833094
H   -0.85872736  -3.01214788   0.68378005
H   -2.03774327  -2.06675717   0.77351908
O   -0.22106424   1.19049261   1.42238818
H   -0.66201745   1.44919583   0.61315103
H    0.46501841   0.58607703   1.13918461
O    0.45483060   0.92344058  -2.88632649
H    0.29256210   0.03043033  -2.58229774
H    1.22911839   1.20573215  -2.39947770
O    1.65321308  -0.45457093   0.29867318
H    2.12631994   0.26051369  -0.12683327
H    1.12353606  -0.84051036  -0.39898351
O    0.80323022   3.56340863   0.37786252
H    0.03707081   3.57924018  -0.19570609
H    0.59124874   2.90898257   1.04346168
O   -2.29955421  -0.60384882   1.84607705
H   -1.59291088   0.05871119   1.83644794
C   -3.21793327  -0.23889298   2.86387905
H   -4.00716902  -0.99558548   2.86094665
H   -3.68483092   0.74205962   2.68355737
H   -2.76013037  -0.22698973   3.86540396
O   -1.27688037   1.98158831  -1.00495745
H   -0.78170731   1.68990698  -1.78479648
C   -2.56141119   1.38217840  -1.06172115
H   -3.10573303   1.72127352  -0.17616289
H   -2.51883035   0.28204592  -1.03578401
H   -3.13389724   1.68687335  -1.95177623
O   -0.00868702  -1.52159311  -1.63803591
H   -0.69977283  -1.95524469  -1.11576205
C    0.67747726  -2.52853390  -2.36452239
H    1.45222343  -2.02281444  -2.94718986
H    0.02177397  -3.06910490  -3.06496048
H    1.16892536  -3.26512856  -1.70978243
O    2.40896995   1.84135355  -1.08210160
H    1.97919531   2.55661140  -0.59004139
C    3.59867505   2.36450672  -1.65082500
H    4.07008857   1.54587075  -2.20136078
H    4.31222344   2.72059660  -0.89133437
H    3.40616012   3.18574211  -2.35884179
O    0.83234221  -2.90732605   1.47705021
H    1.34756992  -2.12618288   1.22649278
C    0.55640087  -2.81376685   2.86544382
H   -0.02440639  -3.70130572   3.13081693
H   -0.04185974  -1.92524784   3.12116933
H    1.46956208  -2.80674728   3.48096365
