45
Energy:   -374.80382109
O   -1.57510427  -0.66954066   2.12970179
H   -2.04992240   0.15435943   2.02030239
H   -1.59078194  -1.07265086   1.26166479
O    2.72713064  -0.82170848   0.18378076
H    2.23274045  -0.40761472   0.89112548
H    2.20977404  -1.59184599  -0.05172344
O   -1.28506006   1.45497157  -1.33775321
H   -0.55711994   1.85716645  -0.86386050
H   -0.90828290   1.19086519  -2.17710930
O    0.90192100   2.33911047  -0.01547715
H    1.55460427   2.02251957  -0.63998223
H    0.96367567   1.73403222   0.72364295
O    2.64103813   1.04865582  -1.74351247
H    3.54081673   1.31826237  -1.92774774
H    2.72865351   0.33925160  -1.10687989
O    0.96942742   0.39402023   1.97191533
H    0.09853629  -0.00504626   2.11585231
C    1.46090009   0.82093614   3.23236413
H    2.44229950   1.26789433   3.05189595
H    1.58998290  -0.01091580   3.94239041
H    0.81999803   1.58300665   3.70275804
O   -1.52900977  -1.23690107  -0.60750690
H   -1.43826657  -0.32146364  -0.91109095
C   -2.81968535  -1.68938469  -0.98426795
H   -2.90506775  -2.72185602  -0.63469966
H   -2.97025644  -1.68476760  -2.07517783
H   -3.62813192  -1.10362564  -0.51942624
O   -2.61169467   1.71067442   1.16404574
H   -2.35757137   1.73593393   0.22959051
C   -2.28189451   2.96726521   1.73390995
H   -2.57470653   2.92149797   2.78636028
H   -2.82468791   3.80265051   1.26456567
H   -1.20325433   3.18470133   1.68880746
O    0.35546563   0.40572099  -3.29486344
H    1.21509906   0.62066047  -2.90338591
C    0.39079755  -0.95641478  -3.68966918
H   -0.58500160  -1.18173417  -4.12845431
H    0.55011304  -1.64090777  -2.84180997
H    1.16176944  -1.15907049  -4.44947859
O    0.82197302  -2.76163389  -0.32623717
H   -0.03052137  -2.33223493  -0.49144346
C    0.69939623  -3.51625714   0.86877432
H    1.66828344  -3.99316805   1.03994311
H   -0.06259373  -4.30795065   0.79549385
H    0.46732678  -2.89063337   1.74485422
