45
Energy:   -372.17866108
O   -1.35079366  -0.12349048   1.85519943
H   -1.34887014   0.69895172   1.36548832
H   -1.54015934  -0.79348265   1.19832579
O    0.84575618  -2.06398894  -1.35209614
H   -0.00821632  -2.09999729  -0.92120611
H    1.46687709  -1.90632594  -0.64105252
O   -2.37757840   0.43063709  -1.86746650
H   -2.18349177   1.05990190  -1.17278094
H   -1.57701714   0.39672609  -2.39109189
O    0.86964824   2.51279358  -1.51569506
H    1.54233818   2.18015986  -0.92149400
H    0.68271683   1.77912613  -2.10137463
O    2.56610643  -1.52759939   0.73751052
H    3.28319931  -2.12299222   0.95549453
H    2.03669843  -1.48779349   1.53398683
O    2.50404672   1.27697646   0.32357921
H    2.60935976   0.32056520   0.43587321
C    2.10946042   1.81641417   1.57491545
H    1.99534722   2.89418949   1.43047264
H    2.86114143   1.65535927   2.36346748
H    1.14593035   1.41514757   1.92615933
O   -1.75462731  -1.78158276  -0.34717417
H   -2.09853850  -1.08712933  -0.92845104
C   -2.60494876  -2.90994194  -0.47481734
H   -2.20317882  -3.68248847   0.18642238
H   -2.62470132  -3.31381652  -1.49915737
H   -3.64033770  -2.69944815  -0.16427035
O   -1.29073571   2.07777741   0.14013292
H   -0.51714358   2.32654617  -0.38721193
C   -2.02296742   3.26134058   0.41499419
H   -2.89069596   2.96297973   1.00956394
H   -2.38873900   3.75677282  -0.49798740
H   -1.44404886   3.99346018   0.99948673
O    0.21815389   0.16283920  -2.87688627
H    0.53061357  -0.63447652  -2.42402882
C    0.78170917   0.16720269  -4.17877728
H    0.41952763   1.07175730  -4.67485256
H    0.46903264  -0.70058196  -4.78040883
H    1.88232720   0.20246926  -4.16560308
O    0.94831167  -1.24188026   2.91175767
H    0.11593798  -0.83528259   2.62846341
C    0.82441066  -1.56195327   4.28825162
H    1.77048747  -2.01891081   4.59092912
H    0.01749853  -2.28490222   4.48577370
H    0.65728079  -0.67406046   4.91792717
