45
Energy:   -371.95390718
O   -2.13642676  -0.57635968   1.69310698
H   -2.24623145   0.22710999   1.18456863
H   -2.09511432  -1.27197078   1.03686745
O    0.99040223  -1.72969075  -0.13968320
H    0.12258346  -2.10434307  -0.29054100
H    0.92749256  -1.31782715   0.72208393
O   -2.27874445  -0.14959775  -2.19910302
H   -2.42549827   0.49573566  -1.50755408
H   -1.36156645  -0.03194289  -2.44643620
O    0.35492863   2.48965750  -0.83018623
H    1.03816886   2.31356206  -0.18334388
H    0.43758063   1.77900516  -1.46609011
O    3.48050042  -0.48455942  -0.48889947
H    3.15464866   0.29495372  -0.03899754
H    2.76532328  -1.11717025  -0.42139372
O    2.16215066   1.49789957   1.04596231
H    1.64532073   0.91123479   1.61791907
C    3.14963531   2.12282044   1.85025189
H    3.72257276   2.77992701   1.19037400
H    3.84754477   1.40168132   2.30374730
H    2.71630564   2.73918127   2.65343434
O   -1.72521617  -2.26377231  -0.52171167
H   -2.01368904  -1.62838934  -1.19364556
C   -2.41445795  -3.48128230  -0.75654985
H   -2.07778000  -4.18559521   0.00900647
H   -2.18742039  -3.91502627  -1.74300687
H   -3.50693970  -3.37567652  -0.66650338
O   -2.14378780   1.61988358  -0.01860058
H   -1.29702177   2.03854307  -0.23339073
C   -3.11965195   2.64535446   0.07431025
H   -4.06708466   2.15639236   0.31674068
H   -3.25097041   3.19433986  -0.87128365
H   -2.89744418   3.37294832   0.87055657
O    0.50476201   0.08778241  -2.25377796
H    0.81397119  -0.54320811  -1.58694670
C    1.51374739   0.19528933  -3.24520347
H    1.14918926   0.90973133  -3.98827493
H    1.71012939  -0.75964258  -3.75737189
H    2.46570806   0.57635874  -2.84353904
O    0.54938331  -0.43085712   2.29649086
H   -0.41814382  -0.43260492   2.24841312
C    0.92711375  -1.24232126   3.39711770
H    2.01970250  -1.22929020   3.43668048
H    0.60200846  -2.28855791   3.28543613
H    0.54616508  -0.86068929   4.35733251
