45
Energy:   -374.59605761
O   -1.63998394   0.13351935   2.76760337
H   -2.00013082   0.60480627   2.01632798
H   -1.66893877  -0.78772616   2.50933961
O    1.90462063  -1.40287570   0.18211007
H    1.07642496  -1.72529655  -0.17337350
H    1.64938799  -0.72646517   0.80945124
O   -1.75086756   0.16695774  -1.87510707
H   -2.06172224   0.62276695  -1.09290558
H   -0.92658840   0.60138184  -2.09435904
O    0.41030767   2.61853672   0.13738984
H    0.74533863   1.97154818   0.75818928
H    0.59294954   2.24210337  -0.72352347
O    2.90455311  -0.50592574  -2.15793415
H    3.84489594  -0.68325839  -2.18117941
H    2.61645584  -0.84910246  -1.31208455
O    0.95689693   0.54121334   1.93011712
H    0.08290448   0.37991513   2.31553035
C    1.82923899   0.91715896   2.98378594
H    2.80897157   1.09504530   2.53216028
H    1.94199032   0.12868708   3.74429667
H    1.51249541   1.84354769   3.48802274
O   -0.52713990  -2.12922687  -0.95067340
H   -1.03835515  -1.39096382  -1.31406015
C   -0.16046431  -2.97201887  -2.03131415
H    0.41455515  -3.79815866  -1.60431196
H    0.47428076  -2.46143816  -2.77238322
H   -1.03179426  -3.39680069  -2.55392477
O   -2.15401128   1.65307472   0.46525593
H   -1.31957948   2.13707478   0.37642580
C   -3.18299699   2.60534025   0.68184898
H   -4.11571236   2.04324110   0.77968446
H   -3.29491033   3.30891989  -0.15792981
H   -3.03651587   3.18706612   1.60538329
O    0.77295863   1.27859873  -2.27734317
H    1.54365158   0.69401109  -2.32942914
C    0.78942914   2.11561370  -3.42262411
H   -0.08520361   2.76747596  -3.34793573
H    0.71384833   1.54948301  -4.36419775
H    1.68662721   2.75237432  -3.47108920
O   -1.34521438  -2.40902688   1.75207241
H   -1.13674705  -2.46268546   0.80756968
C   -0.35685096  -3.14630259   2.45356798
H   -0.60682920  -3.07538494   3.51562578
H    0.65671405  -2.73906576   2.31349136
H   -0.34455651  -4.21198466   2.17617312
