45
Energy:   -375.65838048
O   -2.46449316  -0.94889663   1.55531708
H   -2.65135807  -0.12977588   1.09667283
H   -2.21818021  -1.56128989   0.86210985
O    1.17046019  -2.05838951   0.39163352
H    0.33072086  -2.26082152  -0.02078737
H    0.94765641  -1.47144129   1.11418602
O   -2.03558417  -0.05565901  -2.20890915
H   -2.35506899   0.49744253  -1.49599963
H   -1.11459238   0.18631946  -2.30613261
O    0.35747578   1.85930940   0.43245085
H    0.34048908   1.14514817   1.06956704
H    0.43760587   1.42256550  -0.41552661
O    2.86573329  -0.88664997  -1.40880112
H    3.16416621  -0.13184251  -0.90142026
H    2.37808674  -1.42006532  -0.78118598
O    3.13476307   1.41067132   0.15170833
H    2.27003333   1.79596404   0.35717188
C    3.72723841   1.00563529   1.37541277
H    4.70027213   0.57400659   1.12563839
H    3.13746263   0.23746809   1.89968466
H    3.89415090   1.84701108   2.06606778
O   -1.40893042  -2.27025310  -0.68469019
H   -1.67014996  -1.59677405  -1.33014631
C   -1.59482667  -3.54035049  -1.28870093
H   -1.29592269  -4.28717026  -0.54815934
H   -0.97109632  -3.68014482  -2.18547032
H   -2.64431001  -3.73169733  -1.56210252
O   -2.38977217   1.46740741   0.12642868
H   -1.49808659   1.81415970   0.27835944
C   -3.30040648   2.54649170   0.26374591
H   -4.29969188   2.13838373   0.08949959
H   -3.12542622   3.34685472  -0.47217411
H   -3.28411670   2.99109388   1.27113902
O    0.64640882   0.61378928  -2.03823875
H    1.40729804   0.02024928  -1.95349720
C    0.98998288   1.62312676  -2.97404242
H    0.12201967   2.28279997  -3.05744708
H    1.20872917   1.21860369  -3.97468645
H    1.84973873   2.22963833  -2.64886413
O    0.10304115  -0.23631892   2.22937218
H   -0.81903963  -0.51691169   2.13211992
C    0.44449519  -0.34806267   3.60176288
H    1.48601558  -0.02818790   3.69341776
H    0.37054515  -1.38128658   3.97560384
H   -0.16958185   0.29965790   4.24685574
