45
Energy:   -370.69812663
O   -1.83245812  -0.81037637   1.83991475
H   -1.85003332   0.14607874   1.80649954
H   -1.84146215  -1.08277295   0.92233594
O    1.10144304  -1.86509037  -0.29858918
H    0.17756906  -1.76537700  -0.52825407
H    1.11694451  -1.82297806   0.65755835
O   -1.25760023   0.94614745  -2.51448612
H   -0.89424569   1.58839576  -1.90479568
H   -0.50789291   0.65934206  -3.03593933
O    0.16760453   2.49968814  -0.73833591
H    0.59513226   3.26540001  -1.12192060
H    0.85428801   1.83374313  -0.70348053
O    2.11637360   0.60352790  -0.71437428
H    2.45251883   0.82499094   0.15406820
H    1.79886376  -0.29522127  -0.62679981
O    2.46116321   0.93158052   2.00593553
H    1.98577716   0.13668432   2.28978656
C    1.89538098   2.03853906   2.68935856
H    2.44244494   2.92533675   2.35800366
H    1.99992075   1.96176903   3.78295590
H    0.83023282   2.18588430   2.45160635
O   -1.54693053  -1.27775759  -0.89955166
H   -1.54387978  -0.51166565  -1.49244045
C   -2.34782536  -2.28324702  -1.49962852
H   -2.34038250  -3.13874563  -0.81878203
H   -1.95313286  -2.61732012  -2.47194036
H   -3.39345809  -1.96707792  -1.63915140
O   -1.68211936   1.89906672   1.29866861
H   -1.02539361   2.19597041   0.65137983
C   -2.96729025   2.18146376   0.76845972
H   -3.69489693   1.84075959   1.51007579
H   -3.16510544   1.64756949  -0.17419790
H   -3.13049552   3.25734822   0.59930304
O    1.25045002   0.15984194  -3.40101199
H    1.78442061   0.35673078  -2.61709014
C    1.58634008  -1.14902382  -3.83296345
H    0.97593758  -1.35458869  -4.71650012
H    1.36165349  -1.91722098  -3.07654663
H    2.64530120  -1.24339480  -4.12014425
O    0.80511635  -1.33756034   2.43624803
H   -0.14672172  -1.17065599   2.36864254
C    1.00310897  -2.28743547   3.47117311
H    2.08034444  -2.46386836   3.53378610
H    0.51089118  -3.25059493   3.26423629
H    0.65892193  -1.92507714   4.45250336
