45
Energy:   -373.95081579
O   -2.16961397  -0.80447978   1.99927421
H   -2.33032211   0.05279361   1.60495571
H   -2.02984564  -1.38893962   1.25422162
O    1.19242181  -2.49279526   0.63240961
H    0.29673586  -2.58529235   0.30772081
H    1.10174571  -2.00530919   1.45116905
O   -0.40198210  -0.16267316  -1.92791058
H   -0.49211515   0.74418714  -1.63514397
H    0.50675216  -0.38943004  -1.73038787
O   -0.09911209   2.38929160  -0.90145026
H    0.38746013   2.09561203  -0.13123495
H    0.56839214   2.50306174  -1.57800499
O    2.15044383  -0.47823975  -0.97499574
H    2.01140953   0.17710853  -0.29131456
H    2.00194075  -1.31659815  -0.53757846
O    1.41719606   1.22744923   1.09586516
H    1.13153889   0.62481119   1.79846792
C    2.41920532   2.07408426   1.63597658
H    2.72966231   2.74629506   0.83146785
H    3.30636395   1.51844731   1.97802114
H    2.05090220   2.68928039   2.47183773
O   -1.43091385  -2.15944835  -0.32221430
H   -1.19443639  -1.46255078  -0.95216308
C   -2.21580635  -3.11718103  -1.01447556
H   -2.47342134  -3.89482369  -0.29032668
H   -1.67179684  -3.59180746  -1.84607686
H   -3.15290987  -2.69401142  -1.40886345
O   -2.40054772   1.52913400   0.52014991
H   -1.71864771   2.02065844   0.03865290
C   -3.48618330   1.31688228  -0.36803834
H   -4.24506872   0.76210103   0.19034851
H   -3.20453590   0.71828264  -1.24845333
H   -3.93948031   2.25754595  -0.71796836
O    2.11165928   1.93962389  -2.55378378
H    2.38858376   1.07763876  -2.20922935
C    1.83225027   1.78124546  -3.93558718
H    1.52186298   2.76138806  -4.30769661
H    1.01371670   1.06928699  -4.12504764
H    2.71296240   1.45995098  -4.51342222
O    0.46835993  -0.81193742   2.78829127
H   -0.48935895  -0.79269596   2.64397362
C    0.69942609  -1.37734552   4.06870366
H    1.78288348  -1.39147838   4.21501001
H    0.33049820  -2.41181219   4.14962489
H    0.25279558  -0.78450486   4.88223822
