45
Energy:   -371.17427644
O   -1.61521760   1.04059172   1.44306140
H   -1.09555440   1.82687388   1.27590169
H   -1.88392728   0.74136753   0.57444650
O    1.70536540  -1.53542433  -0.04847188
H    1.03978152  -1.56206870   0.63892904
H    2.32930448  -0.87246050   0.24718134
O   -1.90373732  -2.83341526  -0.11057110
H   -1.42720185  -2.51079882   0.65432395
H   -1.23066938  -3.23245294  -0.66191521
O    1.90691727   2.52511636  -1.20253588
H    2.37608991   2.79170046  -1.99313173
H    1.40641370   1.75394277  -1.46903037
O    0.55559015   0.26673004  -1.76648974
H   -0.38025959   0.17521598  -1.58748616
H    0.97037274  -0.40425106  -1.22429824
O    3.03355191   0.76386362   0.71476869
H    2.77877305   1.48320120   0.11805733
C    2.52404628   1.07190255   2.00242152
H    2.82004876   0.25156659   2.66190362
H    1.42525372   1.14372675   2.01896012
H    2.93952828   2.00598489   2.41186287
O    0.35743585  -3.50746972  -1.55716216
H    1.02748400  -2.96704453  -1.11286568
C    0.39963842  -3.19433776  -2.94016653
H   -0.36115567  -3.81175364  -3.42542440
H    1.37285942  -3.42795424  -3.39955914
H    0.16351338  -2.13826627  -3.14445871
O   -0.00386332   3.16306269   0.75315286
H    0.66865955   3.07817195   0.06110529
C   -0.28370608   4.54446293   0.91425895
H   -1.04292327   4.62197007   1.69724497
H   -0.68809914   5.00589877  -0.00024668
H    0.59734404   5.12228209   1.23465407
O   -2.08143505  -0.23140560  -1.01140562
H   -2.13112759  -1.17197971  -0.78496737
C   -3.28564068   0.11544509  -1.67632455
H   -3.21286557   1.17787405  -1.92418276
H   -4.17646605  -0.02754031  -1.04484799
H   -3.43047157  -0.44458131  -2.61343275
O   -0.37363301  -1.40225123   1.77941102
H   -0.79405173  -0.52987788   1.80463237
C   -0.43395421  -1.94711274   3.08785324
H    0.04386339  -2.92946696   3.04142334
H   -1.46693348  -2.08639043   3.44328661
H    0.10889720  -1.33806744   3.82755149
