45
Energy:   -376.84870467
O   -1.74570572   0.94477623   1.69058222
H   -0.86590203   1.28928921   1.53732391
H   -2.21437880   1.11103059   0.87269661
O    0.07935267  -2.29869267  -0.60100621
H   -0.52417511  -1.82988512  -1.17737897
H   -0.26684299  -2.15211665   0.27927550
O   -1.35762824  -0.61323745  -2.18898595
H   -1.90804978   0.04161407  -1.75952413
H   -0.58126733  -0.12812526  -2.46856017
O   -0.16409527   2.92764011  -1.35317093
H    0.19840360   2.70671062  -0.49525684
H    0.27527814   2.33187432  -1.96000367
O    2.12375939  -0.57756260  -0.29060624
H    1.44787244  -1.22540058  -0.48989155
H    2.45553627  -0.83382407   0.56990873
O    0.84083039   1.61757924   0.91917050
H    1.31740880   0.87004000   0.52868186
C    1.58216687   2.05993911   2.04490215
H    1.03135993   2.90205531   2.47261377
H    2.59094829   2.41202086   1.77811417
H    1.67862996   1.28527411   2.82166874
O   -0.67980708  -1.58355745   1.99060151
H   -1.14059883  -0.73180763   1.96577276
C   -1.56631351  -2.53622196   2.55546473
H   -1.03144122  -3.48962503   2.57594420
H   -2.48196623  -2.67123341   1.95869900
H   -1.85792017  -2.28614654   3.58755250
O   -2.53894586   1.58407845  -0.91828364
H   -1.80704936   2.18653046  -1.11778896
C   -3.73808644   2.20457335  -1.35369347
H   -4.55215123   1.51259869  -1.12141174
H   -3.74957023   2.39331276  -2.43860032
H   -3.93853134   3.15437349  -0.83361765
O    1.08877567   0.72753666  -2.57241751
H    1.65138139   0.33092384  -1.89080446
C    1.61959927   0.36060808  -3.83579532
H    0.97405406   0.81559056  -4.59193520
H    1.61900754  -0.72876861  -3.99715029
H    2.64370695   0.73439544  -3.99156373
O    2.15393208  -1.47872182   2.34268843
H    1.18827081  -1.54385571   2.38366603
C    2.67383378  -2.79848722   2.32135138
H    3.76236992  -2.70661942   2.27514975
H    2.34201053  -3.37208118   1.44177158
H    2.41767954  -3.37112634   3.22647391
