45
Energy:   -373.69987851
O   -1.78547709  -0.11659133   1.48044517
H   -1.98215770   0.57485948   0.84842905
H   -1.61344965  -0.89035184   0.94385121
O    0.20581031   0.65006885   3.11749358
H   -0.52478346   0.37665757   2.56277667
H   -0.20969426   1.02730095   3.89291846
O   -1.76382548  -0.26093876  -2.41868731
H   -2.07105576   0.44771269  -1.85330732
H   -0.83664137  -0.07000107  -2.56047689
O    0.34911974   2.76618842  -1.27864234
H    0.78123519   2.74217037  -0.42486765
H    0.62418305   1.95700505  -1.70968096
O    1.51506658  -1.83680717  -0.47871395
H    1.77952021  -1.71666900   0.43335126
H    0.58560656  -2.06067199  -0.43159229
O    1.47218336   2.28834197   1.19186423
H    1.07662319   1.76323069   1.90335110
C    2.73321826   1.71582924   0.88436800
H    3.16484177   2.31940181   0.08131975
H    2.65284211   0.67771198   0.52571838
H    3.42876525   1.73569799   1.73794691
O   -1.25864271  -2.10038511  -0.43212721
H   -1.52870981  -1.56271673  -1.19133716
C   -1.89651986  -3.36207496  -0.54953779
H   -1.58142395  -3.95492189   0.31344094
H   -1.60221720  -3.90410352  -1.46188000
H   -2.99501344  -3.28673452  -0.52921539
O   -2.10951886   1.78242355  -0.53069805
H   -1.29222748   2.24725866  -0.76390696
C   -3.17130415   2.72120329  -0.59265261
H   -4.08412587   2.18103181  -0.32721623
H   -3.30608488   3.14487283  -1.60018206
H   -3.04671884   3.55172786   0.11972705
O    0.99378913   0.23173854  -2.25241335
H    1.29710480  -0.46487749  -1.65145663
C    1.88524018   0.26690391  -3.35541480
H    1.52896890   1.05678786  -4.02222761
H    1.89866009  -0.67756599  -3.92160722
H    2.91798549   0.50960929  -3.05993460
O    1.89957607  -1.40967423   2.22649528
H    1.38660643  -0.70425294   2.64800000
C    1.56326843  -2.62907506   2.86875111
H    2.14984948  -3.41282591   2.38177834
H    0.49738542  -2.88521967   2.76358130
H    1.81655788  -2.62916937   3.94048885
