45
Energy:   -380.25491791
O   -2.18565111  -0.72021335   2.24822983
H   -2.24176087  -0.07065360   1.54740483
H   -2.12638045  -1.56006280   1.79284895
O    0.85471029  -1.90158675  -0.29837834
H    0.19625476  -1.46550168  -0.83920916
H    0.79380995  -1.46595969   0.55176992
O   -1.00382872  -0.59075773  -1.75706318
H   -1.48140223  -0.05479103  -1.12390041
H   -0.46237891   0.03361313  -2.23999691
O    0.13363057   2.74245365  -0.51964471
H    0.83274117   2.42468971   0.05175908
H    0.35115379   2.39125242  -1.38311051
O    2.77695166  -0.12960075  -1.19270786
H    2.70914315   0.45530604  -0.43804376
H    2.25505845  -0.89473173  -0.95097680
O    2.03116579   1.40756599   1.03747191
H    1.57469542   0.74359791   1.57524925
C    2.84315156   2.18105383   1.90633867
H    3.34999600   2.92384402   1.28436065
H    3.61261537   1.58045544   2.41622526
H    2.25822127   2.71715571   2.67003276
O   -1.51929117  -2.98220718   0.78797387
H   -0.66876689  -2.88075939   0.33549175
C   -2.46005597  -3.45211564  -0.16422433
H   -3.41223059  -3.56081792   0.36211446
H   -2.18739660  -4.43354923  -0.58281997
H   -2.60921729  -2.74810446  -0.99782884
O   -2.01346845   1.13806963   0.17611903
H   -1.33150286   1.80814346   0.02008288
C   -3.27616011   1.77526346   0.06599370
H   -4.03270931   1.00633946   0.24452768
H   -3.45174022   2.20119934  -0.93427005
H   -3.41677328   2.57241583   0.81268866
O    0.90919392   1.19736302  -2.72753028
H    1.67357876   0.75123472  -2.33369195
C    1.20889680   1.44033245  -4.09269613
H    0.33756486   1.94319018  -4.52094833
H    1.38192793   0.51339723  -4.66157984
H    2.08220117   2.09789600  -4.22583889
O    0.56824746  -0.67226583   2.20961435
H   -0.38575702  -0.63526297   2.37371651
C    1.11838961  -1.64288040   3.08584761
H    2.19328853  -1.67164801   2.88773162
H    0.71210844  -2.65159396   2.91203766
H    0.97361606  -1.38812456   4.14741128
