45
Energy:   -379.88368269
O   -2.43937277  -0.89751451   1.77563670
H   -2.24014902   0.00984870   1.54491228
H   -2.77150082  -1.28381949   0.96527181
O    0.66238051  -1.75258436  -1.07640761
H    0.01651997  -1.10257236  -1.35313929
H    0.53360478  -1.83153414  -0.13120097
O   -1.09784113   0.27556668  -1.68379112
H   -1.35886633   0.69534492  -0.86410587
H   -0.40255027   0.83539456  -2.02932727
O    0.86776825   2.73486594   0.47408163
H    1.36910910   2.03626812   0.89461735
H    0.99482669   2.59042210  -0.46358781
O    2.89696852  -0.18220434  -1.12885437
H    2.84472060   0.07827447  -0.20926056
H    2.23252993  -0.86475575  -1.22307109
O    2.07428336   0.43662171   1.49192219
H    1.46468714  -0.29723584   1.66005546
C    2.85598503   0.62329572   2.66095132
H    3.53697448   1.45337017   2.45427531
H    3.46214971  -0.26094663   2.91285842
H    2.24904803   0.89046757   3.54016915
O   -2.94395155  -1.71558382  -0.82359220
H   -2.43804673  -1.09640317  -1.37049156
C   -2.68859438  -3.02463527  -1.30702865
H   -3.26605774  -3.70931911  -0.67994865
H   -1.62659197  -3.30614406  -1.23165618
H   -3.01152872  -3.16302221  -2.35074307
O   -1.61076016   1.55073883   0.73909185
H   -0.79565697   2.07309237   0.77339697
C   -2.70272813   2.45635313   0.74066364
H   -3.61265626   1.85137425   0.70172053
H   -2.70066931   3.12648762  -0.13323158
H   -2.74192898   3.07363955   1.65181572
O    1.22842765   1.76013706  -2.14166666
H    1.91525227   1.11593977  -1.91427921
C    1.68083319   2.49148158  -3.26993887
H    0.89542005   3.21241412  -3.51256547
H    1.84337767   1.85367525  -4.15286566
H    2.60801444   3.05110244  -3.07009706
O    0.20156073  -1.67158677   1.67889867
H   -0.73177602  -1.45115866   1.81570966
C    0.41856479  -2.97099524   2.20518817
H    1.47455029  -3.20339593   2.04280050
H   -0.18255173  -3.74135833   1.69727384
H    0.21820516  -3.03079217   3.28641787
