45
Energy:   -371.79530648
O   -2.30070880   0.70720101  -0.88641763
H   -1.58264564   1.34014057  -0.88857468
H   -2.33021565   0.37468416  -1.78352060
O    1.17898069  -2.33621496   0.48991366
H    0.33886529  -2.33551765   0.03117901
H    1.01612848  -1.83612522   1.28967691
O   -1.70088750  -0.66671844  -3.18832453
H   -1.57933324  -1.46417952  -2.67304574
H   -0.82979306  -0.27201542  -3.22877002
O   -0.06732051   2.23682525  -0.94695022
H    0.55845701   2.01959135  -0.25597715
H    0.25669292   1.77259782  -1.71879219
O    2.58208246  -0.49528710  -0.96776629
H    2.44066356   0.21520949  -0.34212491
H    2.20709447  -1.26696713  -0.54335400
O    1.70087091   1.30558894   0.99902414
H    1.33947788   0.68075308   1.64508799
C    2.76772703   2.00155565   1.62350963
H    3.16322911   2.70100288   0.88199976
H    3.58675260   1.33411758   1.93415552
H    2.44110313   2.58221586   2.50039496
O   -1.34605105  -1.91617803  -0.57714960
H   -1.65233438  -0.99717556  -0.57020242
C   -2.25729961  -2.67944201   0.19718103
H   -1.89739176  -3.71172689   0.17875645
H   -3.27900471  -2.66674491  -0.21359239
H   -2.30104151  -2.35185774   1.24768211
O   -2.04776924   0.58195685   1.91269207
H   -2.33716629   0.62875468   0.98939224
C   -1.97624602   1.90896997   2.40913378
H   -1.64887732   1.83780711   3.44992713
H   -2.95030350   2.42248295   2.39199358
H   -1.24723902   2.52838213   1.86355639
O    0.84115681   0.43932371  -2.89710469
H    1.50949004   0.02283234  -2.33293370
C    1.45767749   0.75152968  -4.13604111
H    0.69100979   1.21981947  -4.75926700
H    1.82805416  -0.14134450  -4.66365285
H    2.29167884   1.46265979  -4.02874220
O    0.37964991  -0.62891306   2.58124453
H   -0.51059894  -0.27192913   2.44544051
C    0.34546778  -1.43943892   3.74503711
H    1.35598675  -1.83342847   3.88327189
H   -0.34354887  -2.29310036   3.64862379
H    0.07303219  -0.87344219   4.64958334
