45
Energy:   -371.72611428
O   -0.44977203  -0.21562766   2.60640634
H    0.30395498  -0.75082935   2.35803846
H   -1.16650596  -0.54382282   2.06344017
O    1.71216609  -1.45167134   1.35669269
H    2.07593454  -0.58258294   1.18760775
H    1.07910770  -1.58815008   0.65182215
O    1.66819682  -0.04465779  -1.85672452
H    0.93292565  -0.57532958  -1.55013749
H    2.41899509  -0.63789803  -1.83223327
O    2.55479229   0.98809941   0.53890510
H    2.33137762   0.76135071  -0.36381454
H    1.84789146   1.56772312   0.82273503
O   -0.23174978   2.02540736  -1.58509403
H   -0.06423718   2.14341273  -0.65008274
H    0.46957389   1.44624087  -1.88332739
O    0.07645947   2.10295259   1.19171123
H   -0.15333224   1.37080791   1.78296686
C   -0.73444243   3.21213356   1.54482516
H   -0.46268623   4.02770473   0.86919401
H   -0.56244237   3.55290146   2.57781623
H   -1.80971957   3.00955864   1.42024667
O   -2.50436107  -0.82731091   0.78292133
H   -2.76194193  -0.08835299   0.21194273
C   -3.63587532  -1.18553100   1.56002342
H   -3.32822513  -2.01905660   2.19726092
H   -4.48518155  -1.52156565   0.94476984
H   -3.98084997  -0.36718959   2.21124317
O    3.45153167  -1.96281721  -0.84861657
H    3.03321447  -2.00976985   0.02386806
C    4.79359111  -1.54327446  -0.66048334
H    5.24993100  -1.49571526  -1.65294352
H    5.37802445  -2.24888419  -0.04947605
H    4.86664275  -0.54423430  -0.20292511
O   -2.84417187   1.27813570  -1.00276231
H   -1.97063375   1.56522101  -1.30761713
C   -3.81322276   1.87514936  -1.84954967
H   -4.79112316   1.54130138  -1.49214021
H   -3.70928625   1.56346087  -2.90065615
H   -3.79263139   2.97549873  -1.80974287
O   -0.21139569  -1.65492323  -0.61944928
H   -1.08919706  -1.48716781  -0.24562292
C   -0.24037832  -2.93609548  -1.22796504
H    0.75594726  -3.10898337  -1.64381395
H   -0.96949347  -2.99962654  -2.05084549
H   -0.45541598  -3.74306352  -0.51009407
