45
Energy:   -372.22038201
O   -2.18073023  -0.32577907   1.71382543
H   -2.08432585   0.43531175   1.14139307
H   -2.09077667  -1.07852795   1.12943744
O    1.09962812  -1.44439264   0.51333055
H    0.24718768  -1.72935696   0.18413079
H    0.91887424  -1.11429947   1.39344326
O   -2.38391678  -0.12781943  -2.11035582
H   -2.19955893   0.56917925  -1.48072350
H   -1.58427370  -0.19786673  -2.63179246
O    1.03477627   2.66383207  -0.19688533
H    1.39571570   2.41075835   0.65276653
H    1.50738192   3.46291313  -0.43000593
O    2.00362735   0.33891585  -1.34355040
H    1.67662920   1.16607325  -0.98983483
H    1.76625623  -0.31415613  -0.68523149
O    2.03125712   1.71876631   2.15393681
H    1.47045950   1.05544341   2.58280980
C    3.30904597   1.13651619   1.95201054
H    3.92791555   1.89703270   1.46817144
H    3.27516120   0.25440894   1.29359125
H    3.79851410   0.84749019   2.89522963
O   -1.48023035  -2.07599561  -0.38143854
H   -1.87021768  -1.48102727  -1.03896863
C   -1.27967619  -3.33439784  -1.00492522
H   -0.83993708  -3.99230061  -0.25041964
H   -0.58486784  -3.28056703  -1.85763908
H   -2.21962873  -3.79214563  -1.35095053
O   -1.60987355   1.69636296  -0.12645940
H   -0.72663558   2.09122315  -0.17544300
C   -2.55360808   2.75512719  -0.09617378
H   -3.54285838   2.29271388  -0.04101057
H   -2.51944950   3.38124963  -1.00148103
H   -2.43238991   3.40782028   0.78250433
O    0.10931570  -0.42395510  -3.21483378
H    0.83651776  -0.16025882  -2.63168309
C    0.67901491  -0.92984713  -4.41151662
H   -0.15380638  -1.22214247  -5.05685167
H    1.30696460  -1.81833336  -4.24107972
H    1.27893240  -0.17803610  -4.94785281
O    0.27563369  -0.34285111   2.95829218
H   -0.64819384  -0.29891556   2.67013312
C    0.32326997  -1.13962588   4.13107286
H    1.37077249  -1.17862597   4.44204339
H   -0.02019286  -2.17159503   3.95830052
H   -0.26310471  -0.71235916   4.95955655
