45
Energy:   -372.50182891
O   -1.45467874  -0.63411741   2.02067343
H   -1.53958554   0.15922602   1.49187395
H   -1.32702683  -1.33565261   1.38209281
O    1.60180690  -1.68232410  -0.76054680
H    0.69980820  -1.94220502  -0.57321798
H    1.84830680  -1.12298049  -0.02392995
O   -2.72261933  -0.34734788  -1.50182686
H   -2.45256000   0.33416212  -0.88632387
H   -2.25741606  -0.13741110  -2.31160727
O    1.15275792   1.84363483  -0.74326688
H    1.59047569   1.37033990  -0.03571694
H    1.36003899   1.34201173  -1.53170881
O    1.67849334   0.05994478  -2.80303918
H    2.43228406  -0.16653361  -3.34777668
H    1.65075433  -0.62498653  -2.13495872
O    2.23374719   0.18950825   1.21961789
H    1.81733014   0.09468574   2.08911706
C    3.63170443   0.31844302   1.42364031
H    4.08512742   0.42427077   0.43435103
H    4.07393123  -0.56563064   1.90905410
H    3.89461028   1.20839263   2.01663907
O   -1.08895261  -2.20579799  -0.28239064
H   -1.71254456  -1.65181737  -0.77499781
C   -1.50452166  -3.55451241  -0.42663197
H   -0.79135223  -4.16468195   0.13423137
H   -1.49353182  -3.89311971  -1.47448771
H   -2.50884351  -3.73656611  -0.01314508
O   -1.44002990   1.47841755   0.19186278
H   -0.55675550   1.67311071  -0.15504381
C   -1.96526134   2.68078364   0.73128979
H   -2.96025088   2.44351959   1.11753684
H   -2.07277266   3.47458727  -0.02441813
H   -1.36051826   3.07318452   1.56380687
O   -1.01943259   0.41462917  -3.53622653
H   -0.07308280   0.26066511  -3.39787762
C   -1.21224506   1.81326785  -3.67467134
H   -2.28332419   1.96890912  -3.82975355
H   -0.67736378   2.23255149  -4.54120499
H   -0.91224571   2.37488714  -2.77613837
O    0.78250285  -0.17063058   3.57541359
H   -0.06086261  -0.36036863   3.13819801
C    0.62940383  -0.46892593   4.95385995
H    1.58834914  -0.24959271   5.43114606
H    0.39203986  -1.52880393   5.13577835
H   -0.14264815   0.14835291   5.43932869
