45
Energy:   -371.61803942
O   -1.33915826   1.21998065   1.55609498
H   -1.31978397   0.52691479   2.21603149
H   -0.41791753   1.39003350   1.35955135
O   -1.04527912  -1.01923903   3.07838539
H   -1.53366584  -1.63461146   2.53155175
H   -0.13337845  -1.13088956   2.80967887
O   -2.10723904  -0.42016404  -0.45201667
H   -1.91258223   0.22470492   0.22804553
H   -2.28371552  -1.22929851   0.02797220
O   -2.11096603  -2.70402305   1.14601228
H   -2.62241471  -3.50674346   1.24746204
H   -1.23035523  -3.00690836   0.92461458
O    0.44035952  -3.29597537   0.52681484
H    0.89607680  -2.62003288   1.02846747
H    0.39373588  -2.94452227  -0.36230765
O    0.76335940   2.46938554  -1.76331835
H   -0.04795887   2.10019590  -2.14264004
C    0.85582463   3.82261803  -2.17894532
H    1.77506667   4.22306694  -1.74291788
H    0.01343275   4.43560023  -1.82200543
H    0.92297308   3.92776272  -3.27311761
O   -1.60373186   1.25322554  -2.65211030
H   -1.97844856   0.72840362  -1.92921845
C   -1.96271488   0.62397501  -3.87182696
H   -1.53268335   1.22799178  -4.67539515
H   -3.05265433   0.58056779  -4.02323741
H   -1.55891438  -0.39690406  -3.95859338
O    1.47844650  -1.07165890   1.86007006
H    1.54980320  -0.18201073   1.48343014
C    2.69819183  -1.35612947   2.52627693
H    2.60062556  -2.36162848   2.94453256
H    2.90255075  -0.66008200   3.35484961
H    3.56489890  -1.35161753   1.84688321
O    1.35927643   1.54687561   0.80475738
H    1.26092543   1.89431645  -0.09415041
C    1.76295164   2.62059173   1.63945122
H    1.86904215   2.21177563   2.64796468
H    1.02012578   3.43274887   1.67670535
H    2.73235054   3.04973731   1.34132849
O    0.02297037  -1.77647799  -1.73481657
H   -0.68453223  -1.19425441  -1.42036619
C    1.13226787  -0.96052616  -2.07572045
H    1.91987917  -1.63221131  -2.42784642
H    1.52471126  -0.39545125  -1.21580426
H    0.90395281  -0.24863195  -2.88433420
