45
Energy:   -373.40269520
O   -1.41348387  -0.36182423   2.01684371
H   -2.07559779  -1.04286963   1.89846222
H   -1.64811874   0.31411055   1.38100528
O   -0.11738198  -1.87303081   0.10390101
H   -0.57991003  -1.53337728  -0.66221591
H   -0.41305675  -1.32030784   0.82729965
O   -1.45426572  -0.63905969  -1.89924596
H   -1.73491427   0.08328878  -1.33739105
H   -0.70157369  -0.29214479  -2.37813698
O    0.60698094   2.49542396  -0.97668961
H    1.23230446   2.20034558  -0.31477490
H    0.75343710   1.91274495  -1.72185241
O    2.33735248  -0.95212950  -0.72565186
H    2.43735075  -0.19154601  -0.15316172
H    1.56193301  -1.40336628  -0.39197259
O    2.28706679   1.31535115   0.90729216
H    1.95098038   0.98511186   1.75370294
C    3.46891620   2.05401051   1.17214706
H    3.83414040   2.41863474   0.20822504
H    4.26143649   1.43951375   1.62721040
H    3.28925659   2.92551922   1.82097086
O   -2.72330733  -2.61559251   1.03492106
H   -1.87089364  -2.79362326   0.61051651
C   -3.73122736  -2.73735316   0.04406015
H   -4.68463134  -2.53370627   0.53906923
H   -3.78098502  -3.74827241  -0.38992578
H   -3.61084010  -2.01256999  -0.77628953
O   -1.77201667   1.44263555  -0.05872253
H   -0.98720248   1.94069954  -0.33152692
C   -2.85336295   2.35681489   0.02788067
H   -3.72907056   1.77927770   0.33621845
H   -3.08299870   2.83643979  -0.93648684
H   -2.68395555   3.14613596   0.77691386
O    1.01296819   0.35971993  -2.75259406
H    1.59040170  -0.15201881  -2.16683194
C    1.53354225   0.25602349  -4.06818650
H    0.87131335   0.83804100  -4.71486548
H    1.54826663  -0.78075950  -4.43918725
H    2.54951112   0.67149132  -4.15746728
O    1.12721093   0.09997564   3.12870161
H    0.18303977  -0.03593087   2.95990139
C    1.71042794  -1.17220876   3.36094829
H    2.77371991  -1.00069196   3.54930268
H    1.62156186  -1.84541717   2.49395891
H    1.28556495  -1.68058480   4.24062015
