45
Energy:   -373.24066667
O   -0.43564671   0.25848479   2.67448310
H   -0.90597348   0.72967039   1.98672682
H   -0.34974106  -0.63368912   2.33851021
O    2.32876377  -1.13357512   0.39875156
H    1.56234122  -1.59758811   0.73567925
H    2.40189656  -0.35672735   0.95318009
O   -2.80576299  -0.00738336  -1.25773431
H   -2.42469154   0.56013139  -0.58770192
H   -2.16451746  -0.00371477  -1.96838369
O    1.21175349   2.22045377  -0.57488035
H    1.62260284   2.01477308   0.26483991
H    1.49926985   1.52013959  -1.16065015
O    1.97451365  -0.01042761  -2.02282603
H    2.79933515  -0.13794909  -2.49148327
H    2.08677800  -0.49293979  -1.20379577
O    2.02937921   1.20807757   1.90212465
H    1.19829124   0.93879102   2.32069462
C    2.85081728   1.78209115   2.90625695
H    3.78256459   2.07980161   2.41768695
H    3.09883401   1.07160572   3.71029395
H    2.40222247   2.67902867   3.36127684
O   -2.03232276  -2.56352156  -0.48782625
H   -2.44771314  -1.72461660  -0.73705021
C   -1.67518596  -3.23883986  -1.68320580
H   -1.20875707  -4.18144552  -1.38416760
H   -0.94835598  -2.67539289  -2.28903006
H   -2.54590777  -3.47416681  -2.31506187
O   -1.32047916   1.65955807   0.42818879
H   -0.48963271   1.91572048   0.00099061
C   -2.08535358   2.83827642   0.62344232
H   -3.01759697   2.53159290   1.10547207
H   -2.33965718   3.34173222  -0.32241141
H   -1.58452620   3.56616853   1.28080245
O   -0.67311122   0.07765199  -3.01653655
H    0.24782067  -0.02619004  -2.73453553
C   -0.80242033   1.36478036  -3.59887105
H   -1.84552556   1.46507266  -3.91089372
H   -0.16604845   1.49505989  -4.48816032
H   -0.57869829   2.17688557  -2.88949744
O   -0.03433699  -2.20011498   1.40839335
H   -0.73459356  -2.39941351   0.76937527
C   -0.00921949  -3.25094262   2.36110744
H    0.78493173  -3.01051662   3.07314984
H    0.22139743  -4.22866199   1.90982260
H   -0.95362517  -3.34048643   2.92044379
