45
Energy:   -372.94788604
O   -0.73774290   0.30921830   3.17277945
H   -1.06492802  -0.46792784   2.71976111
H    0.20714517   0.29586658   3.02033237
O    2.60894294  -0.30129862  -0.26671878
H    1.98293494  -0.99857268  -0.07138645
H    2.06537703   0.46584501  -0.44632557
O   -2.23506489  -0.05226617  -0.83176864
H   -1.96247274   0.70383089  -0.31192002
H   -1.56878945  -0.12654997  -1.51498954
O    0.92889150   1.73708574  -0.87541956
H    0.50081335   1.25644889  -1.58391738
H    0.24364338   1.85584425  -0.21772412
O    2.47102894  -1.02334930  -2.88074911
H    3.33743190  -1.02236095  -3.28766038
H    2.63601765  -0.80137168  -1.96437772
O    1.89127711   0.47454684   2.35326355
H    2.31457955   0.13602450   1.55036821
C    2.35742498   1.79833521   2.56020387
H    1.87081026   2.16439067   3.46833091
H    2.09257256   2.47647593   1.73391355
H    3.44689241   1.84643096   2.71358196
O    0.72369303  -2.18599271   0.25185614
H   -0.08812815  -2.10508751   0.77418172
C    0.46500173  -3.09276434  -0.80803904
H    1.38959534  -3.17221164  -1.38622583
H   -0.33084744  -2.74161228  -1.48338610
H    0.19826933  -4.09969280  -0.45065097
O   -1.17452576   1.84179316   0.92691329
H   -1.04540961   1.39533911   1.77687274
C   -1.71253818   3.12715367   1.19323033
H   -1.85170504   3.61618889   0.22526217
H   -1.03830047   3.75334264   1.79826603
H   -2.69080931   3.08263535   1.69699719
O   -0.15454276  -0.06738711  -2.71639892
H    0.69314201  -0.50220577  -2.89185988
C   -0.68984154   0.35057089  -3.96191090
H   -1.64431492   0.83821453  -3.74587977
H   -0.88340317  -0.49091000  -4.64544667
H   -0.04459079   1.07746340  -4.47965222
O   -1.79661980  -1.61036744   1.41716577
H   -2.07617369  -1.15123296   0.61126972
C   -2.95156983  -2.18407239   2.00833987
H   -2.61867054  -2.69718365   2.91464009
H   -3.43958324  -2.92519921   1.35615026
H   -3.70002011  -1.43006709   2.29829765
