61
Energy:  -1425.02211001
O   -0.66545589   1.66966186  -2.40728313
H   -0.20461516   2.40041054  -1.99513749
H    0.02567091   1.15338025  -2.82204679
O    2.83349873   1.60095703   2.16147656
H    3.52790714   2.05498721   2.63885000
H    2.95378358   1.86890551   1.25045130
O    0.49895511   3.63917373  -0.90538536
H    0.57126115   4.54971305  -1.19160528
H   -0.08887768   3.67082449  -0.15061208
O    1.03296188  -2.80122059   2.96129324
H    1.70651813  -2.25736135   2.55291725
H    1.51206999  -3.54929366   3.31776757
O   -1.28022125   3.28160935   1.16233693
H   -0.81780458   2.62864148   1.68772786
H   -1.64045880   3.89423247   1.80354958
O    1.23577267  -0.01031427  -3.36804982
H    0.67973885  -0.73845244  -3.64530972
H    1.62102954  -0.30345853  -2.54229233
O    3.38138979   1.79487687  -3.18452162
H    4.04030078   1.81476494  -3.87854801
H    2.71465672   1.18687821  -3.50395314
O   -3.84365198  -0.54493194   0.23378123
H   -4.79050260  -0.68231578   0.26261603
H   -3.51688977  -0.95704957   1.03354204
O    0.09113294   1.22803977   2.31712457
H   -0.10963713   0.57377645   2.98635005
H    1.03718100   1.35739451   2.38414898
O    2.72310880  -1.13498219   1.72323071
H    2.64528833  -1.07819799   0.77089077
H    2.91841388  -0.24029219   2.00183004
O   -2.63708053   1.75442735  -0.67719339
H   -3.14406758   1.10284109  -0.19280582
H   -2.25869694   2.31568698  -0.00040292
O    2.07544766  -0.44947142  -0.84538102
H    2.41980151   0.43895235  -0.75397273
H    1.16718094  -0.38639266  -0.54990772
O   -0.65206333  -0.88174952   3.94873717
H   -0.58327870  -0.81998516   4.90146257
H   -0.03094661  -1.56889345   3.70732654
O   -0.73873537  -1.94890862  -3.65486578
H   -0.64607032  -2.64361934  -3.00292863
H   -0.94934813  -2.40888979  -4.46744897
O   -2.82405889  -1.80624212   2.48782360
H   -2.16784697  -1.41091199   3.06169802
H   -3.36783036  -2.33384875   3.07278145
O   -0.78629578  -2.75420587   0.89096099
H   -1.58188164  -2.60252064   1.40112427
H   -0.10695438  -2.91118244   1.54677001
O   -0.44500245  -0.18815438   0.04491664
H   -0.57884388  -1.09412489   0.32336907
H   -0.26170966   0.28736049   0.85517661
O   -2.40295275  -0.28962141  -2.27589464
H   -2.87445397  -0.81789345  -1.63180839
H   -1.89601948  -0.92443590  -2.78211698
O    2.79585626   2.16861443  -0.53803998
H    3.19971039   2.15026209  -1.40567866
H    2.03688075   2.74311774  -0.63870759
O   -0.65474165  -3.78502068  -1.66715878
H   -0.69415163  -3.50201922  -0.75360042
H   -0.42251397  -4.71248898  -1.62128190
H   -1.84849060   1.02953916  -1.76952686
