61
Energy:  -1430.78254028
O   -1.13398593   1.69504906  -2.27974062
H   -0.68419463   2.44889845  -1.89812467
H   -0.62235027   1.47982221  -3.05957278
O    3.05968948   1.44379902   1.91129554
H    3.68228157   2.08437879   2.25519741
H    2.93271997   1.69914454   0.99756185
O    0.11435811   3.73672406  -0.97202155
H    0.11555212   4.66963576  -1.18627885
H   -0.39391199   3.67691503  -0.16312339
O    2.84593651  -1.19069204   2.69755028
H    3.02763831  -0.30564619   2.38146462
H    3.70051325  -1.53121972   2.96207123
O   -1.41722123   3.11900295   1.21348195
H   -0.83331278   2.53458548   1.69694755
H   -1.87109696   3.61950131   1.89151592
O    0.40411827   0.81569111  -4.37995885
H    0.17920861   0.95834009  -5.29936016
H    0.20737801  -0.10822116  -4.22532627
O    2.78989595   0.95262582  -2.98492609
H    3.55117030   1.04710926  -3.55743469
H    2.03797399   1.00439786  -3.57498106
O   -3.41023302  -0.70851830   1.42100202
H   -2.92452880  -1.08413392   2.15532904
H   -3.60396489  -1.45525189   0.85435507
O    0.33297601   1.29468900   2.26354729
H    0.27224250   0.67311531   2.98893645
H    1.26976407   1.47088213   2.17627784
O    1.82345263  -2.81868873   0.69656148
H    2.03048618  -2.37332160  -0.12503275
H    2.24107199  -2.28358563   1.37146192
O   -2.79263968   1.27128511  -0.28953164
H   -3.09261745   0.62590137   0.35056602
H   -2.41370488   1.97434962   0.23804827
O    1.75486235  -1.18526558  -1.56145679
H    2.27722567  -0.50510586  -1.98660520
H    1.14707181  -0.70483692  -0.99930840
O    0.52650181  -0.73617833   4.12149190
H    0.76231059  -0.61089093   5.04069217
H    1.34171086  -1.00730691   3.69940737
O   -0.17289205  -1.67877395  -3.39990266
H   -0.12239493  -2.56211533  -3.76512848
H    0.53830239  -1.64252360  -2.76027760
O   -1.73418362  -2.03194230   3.24979919
H   -0.97360916  -1.59829980   3.63672621
H   -2.08302607  -2.57827638   3.95411437
O   -0.87466013  -2.70117205   0.73570775
H   -1.11064812  -2.60621590   1.65848879
H    0.05486336  -2.92935570   0.74796208
O   -0.21186214  -0.15017376  -0.01731223
H   -0.49632618  -1.00991672   0.29277504
H   -0.00359309   0.33588084   0.78056418
O   -2.33273192  -0.62867737  -2.05159177
H   -2.78528244  -1.33897198  -1.59671657
H   -1.64633994  -1.06551493  -2.55584452
O    2.41318197   2.24311957  -0.57488820
H    2.61642697   1.86748029  -1.43152024
H    1.66927131   2.82309361  -0.73755010
O   -3.28982135  -2.68792054  -0.52735857
H   -2.43954057  -2.89821908  -0.14131586
H   -3.71717936  -3.53652442  -0.64341210
H   -2.05247709   0.74286583  -1.46374022
