61
Energy:  -1429.26415240
O   -1.23099289   1.81650855  -2.22237949
H   -1.08566867   2.70129506  -1.88731894
H   -0.46922279   1.64093879  -2.77475022
O    2.97719117   1.49908689   0.65515239
H    3.79088644   1.90980464   0.94745835
H    2.65353249   2.07435667  -0.03805868
O   -0.60033248   4.20253791  -1.02276495
H   -0.84785586   5.11549243  -1.16931893
H   -0.89679159   4.01345645  -0.13248857
O    2.49479246  -2.04585364   3.45512958
H    2.42002067  -2.43806749   2.58518169
H    3.21687130  -2.51785026   3.86992252
O   -1.46082269   3.16799468   1.35727985
H   -0.74734765   2.59815736   1.64445689
H   -1.82566423   3.52286291   2.16795305
O   -0.55902429  -1.40677054  -3.75500157
H   -0.68706668  -1.85419874  -4.59144941
H    0.39090065  -1.32669654  -3.66861515
O    1.15089952   1.64061184  -3.60895873
H    1.28191831   1.98232305  -4.49343562
H    1.54825347   0.76996537  -3.62674672
O   -3.30745702  -0.73596853   1.51484331
H   -2.77562020  -1.07546967   2.23464912
H   -3.42005121  -1.48271560   0.92669093
O    0.50552310   1.34135668   1.88530995
H    0.57023257   0.83449290   2.69471321
H    1.41128018   1.44357223   1.59309781
O    2.12446114  -3.03206375   0.90973411
H    2.31500017  -2.29552557   0.32883977
H    2.58539747  -3.77319249   0.51667210
O   -2.76275069   1.28501637  -0.16515763
H   -3.04225107   0.61731791   0.46117308
H   -2.41560086   1.99289979   0.37763138
O    2.35245425  -0.83848988  -0.70533027
H    2.78921108  -0.10693700  -0.26908985
H    1.41854800  -0.65007087  -0.61286814
O    0.57313054  -0.26759181   4.10821297
H    0.75986779   0.06575572   4.98584643
H    1.28604786  -0.88021955   3.92747006
O    2.15481187  -0.90187328  -3.42505183
H    2.94063109  -1.28266519  -3.81712010
H    2.32445890  -0.91831961  -2.48314884
O   -1.51732472  -1.86954443   3.33019212
H   -0.83830977  -1.29229133   3.67940466
H   -1.84689692  -2.34220681   4.09452470
O   -0.63313797  -2.75438892   0.88373545
H   -0.88238468  -2.57253822   1.78984706
H    0.28792927  -3.00983911   0.93484507
O   -0.21843418  -0.27688084  -0.18996489
H   -0.45214893  -1.12262967   0.19255069
H   -0.03676548   0.28518618   0.56323428
O   -2.48140512  -0.49051713  -2.08262793
H   -2.76015620  -1.25691162  -1.58146013
H   -1.84318814  -0.83236372  -2.70876836
O    1.88431113   2.98234697  -1.30285385
H    1.73886333   2.56001969  -2.14944493
H    1.11688374   3.54069092  -1.17819803
O   -3.03135082  -2.65046798  -0.46763635
H   -2.18849908  -2.89536404  -0.08572182
H   -3.46368250  -3.48477544  -0.64998829
H   -2.10977448   0.80546117  -1.45163769
