61
Energy:  -1438.86847957
O   -0.92010182   1.44281769  -2.44061021
H   -0.48672183   2.24723927  -2.15544435
H   -0.26754473   0.99718727  -2.98080888
O    2.53228937   1.81369614   2.28891527
H    3.19988127   2.35415451   2.71135775
H    2.60786849   2.02298573   1.35793863
O    0.28777840   3.66721964  -1.42195914
H    0.37422901   4.53892548  -1.80781801
H   -0.29357745   3.79329595  -0.67205115
O    2.46060412  -0.94119618   2.23864289
H    2.61879723  -1.09299209   1.30688928
H    2.60639252  -0.00259980   2.35702545
O   -1.46453121   3.55220942   0.67110576
H   -1.00396732   2.95976803   1.26534977
H   -1.85508533   4.21159207   1.24461587
O    0.90594777  -0.00761282  -3.88860907
H    0.56998228  -0.88027252  -3.68409969
H    0.84405879   0.05609648  -4.84167923
O    3.18396181   0.59223346  -2.42582034
H    3.94420906   0.67613546  -3.00133439
H    2.45312183   0.41483578  -3.01796461
O   -3.44323806   0.00986462   1.85147376
H   -2.78121955  -0.11147237   2.53209163
H   -4.26215341   0.13085176   2.33206882
O   -0.18584865   1.58790979   2.04744157
H    0.73991031   1.69758554   2.26463597
H   -0.53104911   1.02880892   2.74348374
O    1.10950032  -3.52722547  -1.08659179
H    1.68472319  -2.78435143  -0.90359274
H    1.69248819  -4.28638324  -1.09263069
O   -2.63799429   1.33362088  -0.44615152
H   -2.97593863   0.87590315   0.32360165
H   -2.35346778   2.18486296  -0.11349039
O    2.34092144  -1.19019969  -0.50536710
H    1.50910842  -0.73545279  -0.37298807
H    2.81639632  -0.64352428  -1.13090805
O   -1.38664016  -0.24471207   3.71815449
H   -1.51510744  -0.14069217   4.66097359
H   -0.80529779  -1.00082693   3.63714076
O   -0.32931159  -2.34898303  -3.11448569
H    0.15663258  -2.81636181  -2.43503945
H   -0.68323334  -3.03978007  -3.67463807
O    0.41163617  -2.29090912   3.34180768
H    1.19033267  -1.83525971   3.02204647
H    0.74955597  -2.93828087   3.96063873
O   -0.69182048  -2.68989187   0.85440854
H   -0.30285801  -2.73494818   1.72785573
H   -0.08476916  -3.17561351   0.29602245
O   -0.12994938  -0.18592087  -0.05208251
H   -0.40376263  -1.02028731   0.32882533
H   -0.11089461   0.42095993   0.68789348
O   -2.28083903  -0.75153650  -2.00892991
H   -2.73920305  -1.27974026  -1.35537420
H   -1.65025383  -1.35329636  -2.40450446
O    2.46975284   2.32262034  -0.36832450
H    2.79884568   1.78772298  -1.09069184
H    1.76956039   2.84666199  -0.75735242
O   -3.26093014  -2.09986659   0.07951349
H   -2.46271200  -2.52271612   0.39618039
H   -3.49063799  -1.47510739   0.76736674
H   -1.89058412   0.62733968  -1.57881596
