61
Energy:  -1424.07522153
O   -1.09204892   1.83477614  -2.49141489
H   -0.58204906   2.52207974  -2.06275914
H   -0.53407513   1.53378431  -3.20856273
O    3.35574522   1.22658806   1.55062937
H    4.15933999   1.62376936   1.88635889
H    3.19394327   1.67651661   0.72140305
O    0.19749824   3.67738679  -0.94459941
H    0.18651764   4.62831536  -1.05343930
H   -0.25373161   3.52565351  -0.11417754
O    1.28468115  -2.95342843   2.18379238
H    1.96933490  -2.46500311   1.72671275
H    1.66056939  -3.82312337   2.32006627
O   -1.17521741   2.90292365   1.32368889
H   -0.53338593   2.33178895   1.74569524
H   -1.51662771   3.44626007   2.03393983
O    0.43721961   0.64365654  -4.43613574
H    0.18159054   0.68190482  -5.35777705
H    0.25755308  -0.25940278  -4.17453366
O    2.85934886   1.09167732  -3.18837179
H    3.59786944   1.14792832  -3.79471743
H    2.08939578   1.02672570  -3.75333674
O   -3.11704042  -2.69456060   1.91740955
H   -2.84992901  -2.23740816   2.71483979
H   -3.47276639  -3.52783263   2.22619524
O    0.69785199   1.12131567   2.20816666
H    0.61280215   0.42710228   2.86166964
H    1.64196969   1.22331033   2.08787243
O    3.06393101  -1.44241089   0.87033036
H    2.83352442  -1.37255847  -0.05609573
H    3.28841301  -0.54882458   1.12983599
O   -2.72454906   1.47163664  -0.47265439
H   -3.24201913   0.78901613  -0.04547081
H   -2.27442195   1.91638379   0.24554990
O    1.95730408  -0.97104305  -1.59822634
H    2.40740817  -0.29420557  -2.10372529
H    1.30423730  -0.49384515  -1.08634961
O    0.51234850  -1.01062396   3.94359384
H    1.10876884  -1.04683436   4.69139290
H    0.78960476  -1.73315190   3.38028736
O   -0.06736021  -1.77748489  -3.21346381
H   -0.03907029  -2.70570736  -3.44548661
H    0.67840279  -1.65406285  -2.62623609
O   -2.21077627  -1.38331299   4.10049217
H   -1.26528016  -1.23416772   4.10545509
H   -2.49166726  -1.17246883   4.99092849
O   -0.80334410  -2.41676299   0.45292873
H   -1.59645828  -2.61083977   0.95246446
H   -0.08784771  -2.72349379   1.00989639
O   -0.09579309   0.08928941  -0.19731946
H   -0.38804604  -0.79314453   0.03100134
H    0.22534187   0.45635899   0.62630917
O   -2.27063851  -0.48175870  -2.14597634
H   -1.58852063  -1.08546924  -2.44005221
H   -2.80396117  -0.99817653  -1.54173184
O    2.64261103   2.40400839  -0.76307542
H    2.79152721   2.04995484  -1.63983189
H    1.83139050   2.90599646  -0.84156787
O   -4.00580821  -0.92972531   0.03225187
H   -3.74486809  -1.54528700   0.71725253
H   -4.95355743  -1.04127580  -0.04231181
H   -1.95670311   0.93815674  -1.66387825
