61
Energy:  -1427.39522841
O   -0.66767364   1.57271174  -1.81421435
H    0.14369491   1.77386442  -1.34789844
H   -0.44088309   1.66182796  -2.73987962
O    2.87582167   1.28226184   1.52985194
H    3.63097351   1.80278787   1.80376833
H    2.54184924   1.73345329   0.75453231
O    0.28597192   4.47911266   0.16503830
H    0.00913401   5.39538516   0.15892827
H   -0.36764664   4.03452426   0.70481211
O    1.83515474  -2.93528150   2.08227772
H    2.16835058  -2.34365195   1.40760235
H    2.48071771  -3.64085486   2.12285517
O   -1.40795146   2.86028161   1.66419082
H   -0.80499052   2.24155523   2.07631655
H   -1.94972502   3.18318811   2.38422184
O    0.17843265   1.48355235  -4.42617219
H   -0.25871861   1.75804826  -5.23226314
H    0.07970853   0.53156502  -4.41183572
O    2.62274188   1.99910443  -3.22224283
H    3.29525408   2.35554808  -3.80267983
H    1.84461884   1.92339031  -3.77453240
O   -3.37101474  -0.94990785   1.40362247
H   -3.01603662  -1.34428322   2.20029708
H   -3.43355691  -1.67639711   0.78351468
O    0.33543830   0.89874442   2.52061336
H    0.39027901   0.19202781   3.16386757
H    1.24655999   1.10115689   2.30820268
O    2.42932159  -1.08662329   0.17816458
H    1.49715356  -0.88501868   0.09661588
H    2.79850357  -0.33289027   0.63840697
O   -2.60529554   1.13651402  -0.10796267
H   -2.96348191   0.46746637   0.47539794
H   -2.27202196   1.81422388   0.48014438
O    2.24578045  -0.70549799  -2.56269086
H    2.57203312   0.17929781  -2.72678664
H    2.48460064  -0.88451093  -1.65321237
O    0.56748270  -1.41338357   4.02244036
H    1.04181984  -1.44564722   4.85322023
H    1.08145516  -1.96330021   3.43112331
O   -0.09471654  -1.18439121  -3.80530748
H   -0.00070258  -1.95332808  -4.36756126
H    0.74084859  -1.12186592  -3.34254041
O   -1.99846438  -2.27565207   3.45370345
H   -1.17855330  -1.93395633   3.81038494
H   -2.43913378  -2.67401521   4.20426933
O   -0.78056820  -3.08605239   1.13998858
H   -1.24130503  -2.95022472   1.96794043
H    0.12424328  -3.26565471   1.39550970
O   -0.20692627  -0.54415637   0.27512392
H   -0.49977129  -1.40708717   0.56808141
H   -0.11078312  -0.03693325   1.08117171
O   -2.10583218  -0.60545917  -2.01578116
H   -2.43467703  -1.40576970  -1.60639630
H   -1.45697955  -0.90964583  -2.65036180
O    1.67696397   2.31324635  -0.65195438
H    2.10150240   2.40772270  -1.50464025
H    1.31581344   3.18004678  -0.46632257
O   -2.89193928  -2.83142642  -0.60542678
H   -2.13475800  -3.13576216  -0.10513876
H   -3.35797821  -3.63206535  -0.84629371
H   -1.76182133   0.64912266  -1.23174247
