61
Energy:  -1431.08040485
O   -1.09900863   1.69208909  -2.02323286
H   -0.75047734   2.49566259  -1.63719216
H   -0.66234162   1.62475284  -2.87236159
O    2.69086973   1.34192323   1.23735074
H    3.06851408   0.52049747   0.92290472
H    2.75361292   1.93655762   0.48988497
O   -0.14091236   3.91436660  -0.73308186
H   -0.45183016   4.78649048  -0.97590259
H   -0.59433774   3.71754228   0.08661166
O    1.97409470  -2.59973794   2.27843745
H    2.52136000  -2.11826347   1.65802237
H    2.50929138  -3.34931021   2.53908620
O   -1.55784248   2.97544062   1.41653582
H   -0.93663915   2.39088516   1.85085504
H   -2.00505108   3.42562535   2.13317382
O    0.25639393   1.24470280  -4.34806362
H    0.16670624   1.46894973  -5.27429322
H    0.14042954   0.29500553  -4.31875162
O    2.54329720   1.11792128  -2.75719092
H    2.58704110   1.88008688  -2.17976394
H    1.88201619   1.34875920  -3.40961189
O   -3.43559628  -0.99224685   1.42966697
H   -3.01416139  -1.29475107   2.23410197
H   -3.41436879  -1.75168574   0.84740087
O    0.24508679   1.14731623   2.30642618
H    0.32039445   0.49561551   3.00345328
H    1.14686835   1.30499397   2.02685582
O    3.43294975  -1.21526209   0.40283375
H    2.88977887  -1.27895794  -0.38274889
H    4.32682826  -1.35007471   0.08812974
O   -2.81859130   1.08971153  -0.14157339
H   -3.12280340   0.40937399   0.45911594
H   -2.49568007   1.78695099   0.42923070
O    1.67146317  -1.14719287  -1.65015018
H    2.04524103  -0.35780539  -2.04179973
H    1.01787464  -0.82164417  -1.03122213
O    0.57411666  -0.97514290   4.03261862
H    1.07980249  -0.82152080   4.83068749
H    1.14033615  -1.52595038   3.49202777
O   -0.15599905  -1.38936009  -3.64040554
H    0.53981624  -1.43549585  -2.98470407
H   -0.05555579  -2.19100641  -4.15373408
O   -1.89797091  -2.07476122   3.49405038
H   -1.11468184  -1.64236040   3.83422623
H   -2.30272706  -2.47728663   4.26241072
O   -0.59061191  -2.87761944   1.22270129
H   -1.07236077  -2.72435934   2.03551198
H    0.32197479  -2.96606792   1.49764534
O   -0.22800282  -0.40295535   0.12099963
H   -0.41666233  -1.26050660   0.50211024
H   -0.04821014   0.16000350   0.87398288
O   -2.26346840  -0.66566956  -2.02141252
H   -2.52037492  -1.45363567  -1.54251764
H   -1.61094604  -0.97017292  -2.65206623
O    2.50777815   3.12487482  -0.87820388
H    1.62192563   3.47892177  -0.79979518
H    3.07554941   3.89548484  -0.87292753
O   -2.76124096  -2.89449829  -0.48416617
H   -1.96959207  -3.10235183   0.01214098
H   -3.15975756  -3.74523549  -0.66763981
H   -2.04000796   0.65015123  -1.32524898
