61
Energy:  -1425.49471418
O   -0.97579711   1.67099264  -2.37197354
H   -0.51694437   2.41170511  -1.97570210
H   -0.39779661   1.38018288  -3.07736489
O    3.19080290   1.36349490   1.84584746
H    3.95511327   1.79480387   2.22799152
H    3.08361803   1.77894929   0.99019513
O    0.21792303   3.68550071  -0.97260287
H    0.18405439   4.62529832  -1.15111120
H   -0.28180357   3.57674767  -0.16348116
O    1.48195577  -2.88140330   2.60587317
H    2.14115411  -2.37042362   2.13620396
H    1.92237767  -3.70444218   2.81769245
O   -1.28019420   2.97160708   1.21904457
H   -0.66672070   2.41491981   1.69860833
H   -1.65348516   3.54761546   1.88620277
O    0.67855894   0.54280537  -4.25515016
H    0.45472217   0.56387542  -5.18557211
H    0.55170053  -0.37055587  -3.99842065
O    3.04869788   1.06631090  -2.93312527
H    3.79543086   1.15874997  -3.52479808
H    2.29224021   0.97936848  -3.51316377
O   -4.05240607  -0.51341673   1.26407534
H   -3.49136191  -0.97607886   1.88649405
H   -4.81433927  -0.24800485   1.77909590
O    0.49294541   1.20124770   2.29628078
H    0.34696690   0.49244658   2.92279741
H    1.44393867   1.30708628   2.27094597
O    3.16640868  -1.32880458   1.21984904
H    3.00608380  -1.31706950   0.27624422
H    3.29446981  -0.40930122   1.45297080
O   -2.62426920   1.16853841  -0.38626980
H   -3.15621013   0.61157918   0.18212013
H   -2.24249023   1.81845309   0.20371967
O    2.22548474  -1.03540742  -1.35148176
H    2.65719525  -0.34516604  -1.85489484
H    1.51605992  -0.58804812  -0.89015983
O    0.02327021  -0.98331762   3.92612369
H    0.30551546  -0.93053358   4.83924105
H    0.58362245  -1.65663179   3.54026719
O    0.31185019  -1.91509385  -3.06901797
H    0.37445541  -2.84480303  -3.28800033
H    1.02624960  -1.76578011  -2.44968710
O   -2.36584679  -1.91836410   2.90758632
H   -1.60499682  -1.53766467   3.34622868
H   -2.63275304  -2.64179423   3.47472101
O   -0.60154483  -2.46400451   0.82035041
H    0.14229600  -2.76928307   1.33971316
H   -1.32497832  -2.41161651   1.44495535
O    0.05869885  -0.03470355  -0.10448086
H   -0.21470736  -0.90803689   0.17617868
H    0.26779489   0.42430839   0.70904157
O   -2.00241300  -0.71742167  -2.11583874
H   -2.67880485  -1.31546509  -1.79792370
H   -1.28398564  -1.28940968  -2.38588261
O    2.64909560   2.43825479  -0.56368370
H    2.86408610   2.05053549  -1.41202601
H    1.84727653   2.93599869  -0.72358689
O   -4.00498065  -2.12406045  -0.98611156
H   -4.17281966  -1.66966812  -0.16052720
H   -4.76540760  -2.69296237  -1.10583330
H   -1.80201534   0.66790128  -1.56811381
