61
Energy:  -1424.75418870
O   -1.12770859   1.69273211  -2.19023942
H   -0.76540254   2.47386140  -1.77214470
H   -0.63756754   1.60910036  -3.00816321
O    3.12200681   1.25529479   1.64306087
H    3.87897590   1.68476889   2.04153501
H    2.94047454   1.76998364   0.85669374
O   -0.11131420   3.78451218  -0.76483531
H   -0.22008697   4.73008493  -0.86628731
H   -0.56090959   3.57776582   0.05452528
O    1.60232539  -2.86833737   2.58639836
H    2.17619215  -2.36859169   2.00574093
H    2.14824587  -3.58864544   2.90161093
O   -1.44427231   2.75349807   1.39761654
H   -0.78045983   2.17963824   1.78006878
H   -1.86319542   3.17084806   2.15031452
O    0.36804178   1.13743508  -4.42434162
H    0.09795781   1.31229591  -5.32584602
H    0.26858966   0.19078743  -4.32334978
O    2.73175247   1.39319485  -3.02226048
H    3.48472704   1.58559141  -3.58104909
H    1.97987318   1.42362273  -3.61385453
O   -3.90841518  -0.84434640   1.43859425
H   -3.43600321  -0.96954628   2.26162752
H   -4.83239806  -0.90948944   1.67993190
O    0.45268548   0.96963895   2.19689562
H    0.37211694   0.33332107   2.90741663
H    1.39423527   1.12253849   2.11728678
O    3.02035636  -1.38854455   0.84304364
H    2.86806838  -1.33885223  -0.10065699
H    3.18151324  -0.48301468   1.10813977
O   -2.74199951   0.96977424  -0.24522699
H   -3.20370971   0.35563723   0.32564188
H   -2.37740513   1.62389403   0.35095258
O    2.02175671  -0.94354829  -1.73132104
H    2.39764938  -0.15458959  -2.12180882
H    1.32869409  -0.61973721  -1.15595818
O    0.22077388  -1.02491852   4.06326122
H    0.63108257  -0.96319232   4.92585527
H    0.70661573  -1.71746456   3.61541133
O    0.09632772  -1.46034395  -3.58387527
H    0.21870496  -2.29138954  -4.04280759
H    0.82627839  -1.41756034  -2.96615897
O   -2.52187023  -1.24998374   3.73902354
H   -1.57558072  -1.18397285   3.86712727
H   -2.84449109  -1.66123845   4.54090707
O   -0.17012521  -3.04374687   0.49932926
H    0.36975717  -3.07047529   1.28929410
H    0.16478570  -3.75673001  -0.04447363
O   -0.06762855  -0.35745156  -0.13849267
H    0.13969663   0.09489994   0.67920302
H   -0.14808374  -1.27823077   0.11035357
O   -2.17862582  -0.70539649  -2.19413043
H   -2.45476524  -1.43249330  -1.63617964
H   -1.45915472  -1.06232295  -2.71489591
O    2.37774597   2.59309925  -0.56562553
H    2.55155632   2.26833731  -1.44911378
H    1.56226501   3.08753867  -0.64779796
O   -2.75923378  -2.56860378  -0.36645830
H   -3.24746216  -2.12574372   0.32761652
H   -1.95490317  -2.86650684   0.05843919
H   -1.97794898   0.58657426  -1.48674320
