61
Energy:  -1423.90619597
O    2.49584225   3.35076984   1.83507669
H    3.16596743   3.90080891   2.24081196
H    1.97488366   3.02607079   2.56951833
O    0.85429968  -2.96703608  -1.17805612
H    1.32737689  -2.49130504  -1.86077845
H    0.25154605  -3.53657847  -1.65611614
O    3.69281081  -0.99635330  -0.49869671
H    3.39088332  -0.10548272  -0.32143635
H    4.62399854  -0.98263189  -0.27748868
O   -1.12749361  -4.40755261  -2.31069725
H   -1.45857719  -5.27813834  -2.53136897
H   -1.87747077  -3.95685064  -1.92258150
O   -4.07212343   0.20298868  -0.76131410
H   -4.88797844   0.63565921  -1.01312486
H   -3.60009347   0.08259240  -1.58528273
O   -1.61336615  -1.28148829   2.97738208
H   -1.95772242  -0.57737454   2.42795107
H   -2.28216355  -1.40995248   3.65001782
O    1.18558621   2.75491216  -2.10684890
H    0.75766881   3.20836398  -1.38055696
H    1.48081194   3.45650751  -2.68722601
O   -0.74005770  -2.80731839   0.88439353
H   -1.05262379  -2.37988608   1.68178672
H   -1.47121348  -2.73488626   0.27088178
O    0.97806778  -0.31823798   2.93897624
H    0.97765884   0.58864147   3.24524627
H    0.10044270  -0.64100611   3.14349229
O   -2.18284713   0.65857139   1.16242877
H   -1.39321525   0.43129867   0.67144969
H   -2.89747449   0.53675696   0.53736812
O    0.08481651   0.33741620  -2.84637648
H    0.86311251  -0.19456436  -3.01215909
H    0.42021501   1.22809550  -2.74424876
O   -1.47670516   3.07988837   2.17653131
H   -2.25961387   3.60649286   2.33769434
H   -1.81023466   2.25777963   1.81718866
O    2.29613972  -1.34865613  -2.84787923
H    2.91390902  -1.20326549  -2.13132184
H    2.83778035  -1.66360661  -3.57152518
O   -2.50323976  -0.55611360  -2.92364418
H   -1.61632112  -0.20065273  -2.98069459
H   -2.76132803  -0.70441012  -3.83338614
O    0.31106498   3.86907376   0.19970806
H    1.09726501   3.88256823   0.74554618
H   -0.40191310   3.68218944   0.81041941
O    1.79437916  -2.16170284   1.12737463
H    1.63239717  -1.51515262   1.81437281
H    2.55633578  -1.82507728   0.65584817
O    0.07288264  -0.07049127  -0.17373921
H    0.84911454   0.42787192   0.08185814
H    0.01198261   0.04947324  -1.12143724
O    0.72261627   2.35657344   3.66639963
H    0.59450536   2.59025257   4.58575457
H   -0.08325612   2.63737218   3.23286347
O    2.46308421   1.37203959  -0.07791046
H    2.57669294   2.01836654   0.61892983
H    2.16520272   1.88150312  -0.83153196
O   -2.71782771  -2.53283652  -1.00300773
H   -3.55535959  -2.27382978  -0.61870614
H   -2.56555269  -1.89404447  -1.69941915
H    0.63350278  -2.58781007   0.30476729
