61
Energy:  -1427.56267213
O   -1.25579853   1.46971950  -2.52497778
H   -0.76038549   2.23865487  -2.24295619
H   -0.63426843   0.96179664  -3.04646273
O    2.61294561   1.72740042   2.06946489
H    3.16588735   2.41289838   2.44440467
H    2.58299144   1.92810384   1.13402236
O    0.14650910   3.60045957  -1.54851043
H    0.28055946   4.43775289  -1.99258502
H   -0.41946573   3.81066320  -0.80573269
O    3.04395646  -0.97166248   2.24818249
H    3.95677727  -1.08947735   2.51106968
H    2.93355269  -0.02309988   2.18282321
O   -1.58444584   3.76416565   0.55706257
H   -1.08793216   3.25758639   1.19977827
H   -2.02777969   4.43762693   1.07294710
O    0.51826689  -0.08231426  -3.90609172
H    0.07007315  -0.92328571  -3.81597378
H    0.59538639   0.04846590  -4.85117425
O    2.57265926  -0.04326782  -2.06642913
H    3.37605396  -0.04221241  -2.58680178
H    1.86749369  -0.04860315  -2.71368866
O   -3.13752141   0.05441697   1.77735431
H   -3.17693119  -0.85378272   1.47760103
H   -2.52438403   0.03820132   2.51222264
O   -0.11841328   2.03634117   2.07619270
H    0.82997302   1.98826347   2.19654139
H   -0.47572250   1.46255465   2.75393233
O    1.03909335  -3.69590281  -2.06682103
H    1.54698453  -3.21137282  -1.41604528
H    1.46559081  -4.55144037  -2.11568033
O   -2.86065021   1.54089151  -0.44869980
H   -3.05911069   1.05948335   0.35447607
H   -2.54659977   2.39305461  -0.14633872
O    2.21071588  -2.02698575  -0.19766493
H    2.32081405  -1.30514458  -0.81657976
H    2.61974816  -1.71537346   0.60969015
O   -1.17261398   0.14768621   3.76665820
H   -1.47587845   0.24095082   4.66974415
H   -0.51016129  -0.54212644   3.80598748
O   -0.91803448  -2.33005249  -3.35800535
H   -0.26655561  -2.85597776  -2.89409830
H   -1.35418465  -2.94955410  -3.94300333
O    0.78427836  -1.78945202   3.58824742
H    1.62303311  -1.50460206   3.22550396
H    1.01334058  -2.48408651   4.20569804
O   -0.21056592  -2.22219677   1.06303411
H    0.06913699  -2.16983942   1.97695798
H    0.60396169  -2.30511828   0.56715041
O   -0.28329632   0.29426073  -0.04090783
H   -0.28332785  -0.56760709   0.37552429
H   -0.19841292   0.91178062   0.68551893
O   -2.44571623  -0.73726248  -1.71211583
H   -2.71607927  -1.30610526  -0.99131519
H   -1.96173755  -1.31329904  -2.30387453
O    2.36505770   2.25209959  -0.54600675
H    2.40503462   1.45896216  -1.08039117
H    1.62985296   2.74768960  -0.90669551
O   -2.86771499  -2.36004070   0.46108437
H   -1.94407346  -2.48536761   0.67882581
H   -3.26270318  -3.22311822   0.58483159
H   -2.09438460   0.74979914  -1.47224605
