61
Energy:  -1429.22819697
O   -1.26554626   1.52542013  -2.29236122
H   -0.90059284   2.24080424  -1.77152878
H   -0.67425955   1.44776957  -3.04108165
O    3.40707151   1.09760097   1.65463005
H    4.16406907   1.55555159   2.01996245
H    3.14766661   1.62659999   0.90024223
O   -0.14288056   3.49944797  -0.79191095
H   -0.21106302   4.44495919  -0.92454403
H   -0.49074465   3.35484526   0.08803932
O    1.12816784  -2.97730050   2.46985019
H    1.78029044  -2.50775890   1.94975535
H    1.52824309  -3.82926177   2.64401576
O   -1.07088825   2.88606337   1.64002705
H   -0.38010572   2.32731963   1.99619664
H   -1.87029002   2.36773503   1.73235468
O    0.49757795   0.98985244  -4.34895961
H    0.30426048   1.21779130  -5.25830227
H    0.55033258   0.03410904  -4.34712718
O    2.81914655   1.25240739  -2.87978447
H    3.58275299   1.44844499  -3.42265306
H    2.07717625   1.30164557  -3.48251783
O   -3.19513863   1.14023920   1.79539936
H   -2.91328165   0.45382458   2.40006742
H   -3.97366383   1.51671245   2.20576293
O    0.74765116   0.94490377   2.26570137
H    0.65230846   0.34014925   3.00150949
H    1.69346155   1.04912680   2.16172007
O    2.87403975  -1.55105158   0.99976293
H    2.70683832  -1.47533749   0.06032538
H    3.19796050  -0.68760839   1.25622550
O   -3.05446138   0.27340976  -0.80016303
H   -3.37710680  -0.62084292  -0.68861073
H   -3.09447121   0.65416316   0.07713847
O    1.94544701  -1.01125713  -1.54265708
H    2.36869152  -0.22920042  -1.89689319
H    1.21455664  -0.67463450  -1.02427853
O    0.30767787  -0.99097301   4.17352774
H    0.77752474  -1.00633394   5.00733816
H    0.66382589  -1.73221746   3.68368379
O    0.65952752  -1.71200146  -3.81052523
H    1.01106898  -2.49340183  -4.23721470
H    1.19885329  -1.60309217  -3.02726389
O   -2.32006366  -0.96163405   3.37140748
H   -1.45196331  -0.88913892   3.76811655
H   -2.86309028  -1.35760494   4.05299459
O   -1.28585820  -2.37977863   1.25067678
H   -1.70914099  -1.95331645   1.99578988
H   -0.47983971  -2.74898903   1.61157806
O   -0.19690976  -0.22983413  -0.04860867
H   -0.55738297  -1.01588726   0.36177090
H    0.16085337   0.27839566   0.67936102
O   -1.69939265  -1.05472622  -2.59597554
H   -2.12227552  -1.81467741  -2.19613042
H   -0.93923911  -1.41553031  -3.05228558
O    2.39208530   2.44675524  -0.44856614
H    2.60053514   2.13606286  -1.32961708
H    1.54688950   2.88608369  -0.54272774
O   -3.14698941  -2.52585601  -0.75595351
H   -2.53302179  -2.66352905  -0.03462020
H   -3.73667241  -3.27880093  -0.71620726
H   -1.94325446   0.32944807  -1.78973997
