61
Energy:  -1428.94378235
O   -0.89415918   1.54007373  -2.51366913
H   -0.75128084   2.44259747  -2.22859275
H   -0.03183688   1.23971264  -2.80074981
O    2.79286224   2.05381876   1.65312821
H    3.44274521   2.70381042   1.92032628
H    2.62051223   2.25118189   0.73248978
O   -0.31915398   3.96869234  -1.37729861
H   -0.41255432   4.87273846  -1.67764648
H   -0.79276087   3.94187445  -0.54590871
O    3.44569549  -0.61474845   1.56350825
H    3.32197101   0.33167502   1.63566582
H    3.08337616  -0.96682034   2.37652851
O   -1.67917382   3.41406292   0.93996315
H   -1.05759275   2.86863803   1.42202176
H   -2.12295914   3.92665648   1.61563635
O    1.71722191   0.99382454  -3.18312740
H    1.97097249   0.07087435  -3.18079504
H    2.10228870   1.34655825  -3.98533332
O    2.26187816  -1.68488301  -3.06709789
H    3.05024072  -2.16031780  -3.32916295
H    2.24451694  -1.75655286  -2.11274267
O   -4.70863402   0.03567266   0.48971649
H   -5.65576846  -0.05787268   0.59178257
H   -4.39442786  -0.85564514   0.33786483
O    0.10499411   1.66018778   2.00903943
H    1.04453186   1.84315373   2.01395055
H   -0.01324828   0.99369040   2.68581992
O    1.14273248  -3.48034717   1.49323094
H    1.47927197  -2.94831663   0.77217856
H    1.35035453  -4.38096220   1.24419782
O   -2.76167521   1.47883432  -0.68292700
H   -3.50812442   1.06086626  -0.25356920
H   -2.49018460   2.16725292  -0.07579890
O    1.94480602  -1.69377433  -0.38422738
H    1.19745994  -1.09727557  -0.34069672
H    2.59564575  -1.30615374   0.20091343
O   -0.29323394  -0.50492965   3.67859487
H   -0.61750498  -0.44590664   4.57725856
H    0.54563391  -0.95947828   3.75552423
O   -0.43990119  -2.01129661  -3.56155547
H    0.50880736  -1.97230365  -3.44046262
H   -0.55682431  -2.46413732  -4.39671780
O    2.04785297  -1.92508557   3.58170384
H    1.79366360  -2.58459314   2.93620451
H    2.57974436  -2.40391743   4.21734795
O   -1.23574403  -2.08411842   1.58832559
H   -1.10142777  -1.57521279   2.38782921
H   -0.50853318  -2.70638568   1.57492141
O   -0.24879477  -0.13063724  -0.03972969
H   -0.67224504  -0.80937644   0.48585077
H   -0.05431634   0.56920633   0.58367144
O   -2.29464915  -0.65274101  -2.13981085
H   -2.68284883  -1.28513540  -1.53515376
H   -1.67686067  -1.16630587  -2.66021490
O    2.02038207   2.54497268  -0.88680783
H    2.04465074   1.97802000  -1.65765642
H    1.29503661   3.14670554  -1.05420967
O   -3.34542379  -2.27484764  -0.15734501
H   -2.67090310  -2.30483228   0.52114936
H   -3.65301594  -3.17835907  -0.23005003
H   -1.91631885   0.73592407  -1.74074680
