61
Energy:  -1423.06417341
O   -1.07029356   2.20592479  -1.78704273
H   -0.60972705   2.86105470  -1.26271921
H   -0.61183053   2.20546933  -2.62730655
O    3.27350439   0.77919331   1.58002316
H    4.08574532   1.03078947   2.01956370
H    3.14154318   1.45455941   0.91466708
O    0.22913289   3.95332300  -0.15587300
H    0.25525191   4.91016658  -0.15594971
H   -0.23487905   3.72597715   0.64988045
O    1.46778802  -3.35259217   1.73119487
H    1.83373929  -2.72482472   1.10812221
H    2.22663833  -3.83452117   2.06001472
O   -1.22244210   2.88696869   1.90912113
H   -0.55729402   2.26821622   2.21070903
H   -1.54656071   3.29992915   2.70952268
O    0.30924418   1.98418720  -4.14360878
H    0.04062965   2.35268736  -4.98520590
H    0.15136473   1.04422860  -4.23183439
O    2.79830686   1.86012460  -2.94184276
H    3.49105897   2.18264319  -3.51830450
H    1.98866259   2.02050053  -3.42659792
O   -3.69416849  -0.83795085   1.65054342
H   -3.33119164  -1.36962291   2.35892501
H   -4.64256377  -0.90950659   1.75851572
O    0.64278879   0.98265682   2.40053694
H    0.46647633   0.16493722   2.86581150
H    1.58955291   0.97926162   2.25961847
O    2.34609419  -1.36408092   0.07460018
H    1.50506830  -0.92305352  -0.04540870
H    2.87436503  -0.74158562   0.57426144
O   -2.59462310   1.26457828   0.14732833
H   -3.05055853   0.61254468   0.67950022
H   -2.22309919   1.87605498   0.78317271
O    2.20031842  -0.82994515  -2.64902291
H    2.42099051  -1.12489591  -1.76554131
H    2.56439442   0.05353931  -2.70502040
O    0.07040514  -1.49981388   3.25759913
H   -0.78932643  -1.90459392   3.37269291
H    0.60408612  -2.18178156   2.84975536
O   -0.18826060  -0.68826414  -3.88454861
H   -0.23407067  -1.38511662  -4.53917056
H    0.64156783  -0.83853535  -3.43174050
O   -2.40864868  -2.72171141   3.24546785
H   -2.05224258  -3.39548104   2.66646783
H   -2.65914843  -3.19505258   4.03883401
O   -1.09790102  -4.27805932   1.36159959
H   -0.16907223  -4.06480400   1.45121598
H   -1.10817423  -5.19462266   1.08584978
O   -0.01704217  -0.10262036  -0.00246370
H   -0.59521279  -0.84537606   0.17150340
H    0.16256553   0.26911421   0.86112552
O   -2.12486592  -0.17843402  -2.01529178
H   -2.16143801  -0.97068818  -1.47935551
H   -1.50684700  -0.39025744  -2.71487401
O    2.65566539   2.60508297  -0.28979614
H    2.74559374   2.38463524  -1.21691401
H    1.85472755   3.12721370  -0.24386217
O   -1.94994823  -2.06637555  -0.04761548
H   -1.68526923  -2.91766438   0.30093036
H   -2.65350941  -1.77735019   0.53350228
H   -1.85255429   1.05445008  -1.20693637
