61
Energy:  -1429.87223419
O   -1.03337699   1.66524907  -2.23096611
H   -0.67256276   2.46766998  -1.85391752
H   -0.59463136   1.57939104  -3.07734813
O    3.24308217   1.23274210   1.47933602
H    4.04524231   1.61349481   1.83682494
H    3.05728821   1.75409489   0.69837269
O   -0.01622175   3.82016284  -0.88553268
H   -0.14859679   4.75862392  -1.01969492
H   -0.43762831   3.63595288  -0.04605960
O    1.59540427  -2.87401161   2.62819571
H    2.14399909  -2.41044911   1.99543558
H    2.12022706  -3.62952527   2.89275571
O   -1.29698367   2.90515672   1.35652366
H   -0.63975092   2.35124890   1.77778732
H   -1.71250352   3.37617552   2.07882304
O    0.33639880   1.04460069  -4.52565171
H    0.10121835   1.20341488  -5.43981803
H    0.17155381   0.11091498  -4.39416412
O    2.66258959   1.17414306  -3.05433265
H    3.44555580   1.21758796  -3.60324821
H    1.93326830   1.23242314  -3.67152447
O   -3.71057528  -0.62067395   1.46359757
H   -3.23015160  -0.92938961   2.23178998
H   -4.18610773  -1.39091391   1.15242052
O    0.61280350   1.16044325   2.24907034
H    0.57168905   0.53314719   2.97090210
H    1.54830178   1.26683214   2.07657042
O    2.96138989  -1.44584626   0.80665517
H    2.70876004  -1.42652633  -0.11640320
H    3.17096230  -0.53591259   1.01720672
O   -2.71381319   1.19405914  -0.27159523
H   -3.15004980   0.56651800   0.30470468
H   -2.30461719   1.82221840   0.32355721
O    1.77687924  -1.05084150  -1.68949546
H    2.18625912  -0.28274403  -2.08782476
H    1.13335185  -0.69051337  -1.07935778
O    0.44685262  -0.86939072   4.11278874
H    0.91721081  -0.77546135   4.94114392
H    0.90066562  -1.57910431   3.65826456
O   -0.09566718  -1.50002014  -3.60696610
H    0.00314999  -2.34191010  -4.05158764
H    0.60792246  -1.48726138  -2.95809734
O   -2.12074804  -1.66895156   3.49716948
H   -1.30534655  -1.29778044   3.83419211
H   -2.50235453  -2.12859848   4.24505520
O   -0.82698826  -2.60186216   1.27031693
H   -1.32230694  -2.34238042   2.04720848
H    0.01496655  -2.90288497   1.61197351
O   -0.12969721  -0.25304340   0.03766724
H   -0.39698804  -1.08681298   0.42446918
H    0.15832622   0.27543305   0.78197026
O   -2.21854369  -0.66434137  -2.07406788
H   -2.53558998  -1.41414944  -1.57057869
H   -1.56126103  -1.03243131  -2.66459404
O    2.47065831   2.59762265  -0.70485828
H    2.58037813   2.18261176  -1.56040453
H    1.67027386   3.11561959  -0.79027347
O   -2.86938567  -2.83667325  -0.55514188
H   -2.15084861  -2.86990987   0.07638933
H   -3.16763861  -3.74335729  -0.62726038
H   -1.96282274   0.68023752  -1.45244183
