61
Energy:  -1423.07519174
O   -1.25170123   1.66859703  -2.28747237
H   -0.77504434   2.40434172  -1.90314202
H   -0.70880264   1.38986469  -3.02490117
O    3.01377448   1.49375738   1.84453658
H    3.75162681   2.00454086   2.17756215
H    2.91464221   1.77936571   0.93633367
O    0.04604362   3.67989837  -0.98880008
H    0.03401595   4.61022080  -1.21371642
H   -0.47653745   3.61955534  -0.18911290
O    2.48900432  -1.06822165   2.79657002
H    2.83176319  -0.25399174   2.42808955
H    2.57483759  -1.70682018   2.08871663
O   -1.52703007   3.08518878   1.18089365
H   -0.89521509   2.56180212   1.67395356
H   -1.91427330   3.67013144   1.83213601
O    0.36403349   0.62245970  -4.25233217
H    0.09770589   0.66915416  -5.17054842
H    0.26610186  -0.30111825  -4.02071824
O    2.83194390   1.04006606  -3.06568332
H    3.51854629   1.24065999  -3.70174235
H    2.02969817   0.99217763  -3.58562595
O   -3.53044451  -0.87111469   1.63134472
H   -4.22642100  -0.69732540   2.26510009
H   -2.87378448  -1.36259238   2.12478076
O    0.30226328   1.40225299   2.26984992
H    0.19647598   0.77400594   2.98423535
H    1.24740294   1.54181599   2.21098542
O    2.45966311  -2.80690215   0.66440129
H    2.49944746  -2.25334029  -0.11548224
H    3.12201122  -3.48137027   0.51400321
O   -2.75589868   1.05019857  -0.21545430
H   -3.04436288   0.41239888   0.43741001
H   -2.43438796   1.79099018   0.29844306
O    2.09131536  -1.06927581  -1.43040505
H    2.55165652  -0.41611998  -1.95738259
H    1.44818805  -0.56535737  -0.93172146
O    0.21550327  -0.62389745   4.14061673
H    0.42253561  -0.48708823   5.06509101
H    1.05063543  -0.86716841   3.74111032
O    0.11607511  -1.87190263  -3.12733828
H    0.15982743  -2.80365180  -3.34218956
H    0.84070790  -1.73188590  -2.51780199
O   -1.61693689  -2.29924570   3.00949085
H   -1.00056689  -1.73236485   3.47313508
H   -1.73310389  -3.05215811   3.58902513
O   -0.31753387  -2.54434382   0.57485728
H   -0.73342937  -2.62252686   1.43343179
H    0.58313377  -2.83555732   0.71706963
O   -0.00390710   0.02045456  -0.09879268
H   -0.19538723  -0.87995805   0.16355126
H    0.14994341   0.48289348   0.72504718
O   -2.15333795  -0.76750947  -2.01410231
H   -2.77147788  -1.39816717  -1.64477083
H   -1.43054823  -1.30316329  -2.34103023
O    2.46176141   2.35628483  -0.65447771
H    2.65755743   1.97896997  -1.51210773
H    1.66208335   2.86391598  -0.79252652
O   -3.93627977  -2.30248428  -0.70719166
H   -3.90346882  -1.94056373   0.17834140
H   -4.64672327  -2.94332041  -0.67836570
H   -1.98773318   0.61867657  -1.45156125
