61
Energy:  -1425.70950287
O   -1.45358981   1.20230382  -2.37395072
H   -0.83537206   1.90465351  -2.17210036
H   -0.90967554   0.49757160  -2.72571997
O    3.07106943   1.35668748   1.84719756
H    3.84705783   1.79448269   2.19706783
H    2.96019227   1.72798167   0.97193832
O    0.09692390   3.25838465  -1.41611042
H    0.12202524   4.11866399  -1.83506294
H   -0.23132139   3.43070750  -0.53361865
O    1.24820737  -2.89590550   2.61838525
H    1.90969917  -2.38514836   2.15170808
H    1.70303176  -3.69693005   2.87862801
O   -0.94774966   3.33758249   1.13708290
H   -0.45872446   2.70931548   1.66846483
H   -1.09935860   4.07994127   1.72201881
O    1.60767620   0.40323793  -4.80223797
H    1.45050241   0.36367599  -5.74561652
H    0.95595751  -0.18791324  -4.42536280
O    3.40397879   0.83772466  -2.80809409
H    2.83808461   0.76855956  -3.57699708
H    4.28838478   0.70161593  -3.14799454
O   -2.51274969  -1.80649622   2.92673970
H   -1.75488752  -1.43763820   3.38041419
H   -2.87606212  -2.44171837   3.54377191
O    0.38908858   1.28504312   2.37635497
H    0.23362021   0.59383137   3.02000687
H    1.34237179   1.34416351   2.31320646
O    2.91689803  -1.33533307   1.23935491
H    2.72133446  -1.30163125   0.30295173
H    3.10342085  -0.42742260   1.47839395
O   -2.76889844   1.75331617  -0.16158965
H   -3.27174281   1.29559419   0.51210908
H   -2.19706695   2.34563274   0.32667430
O    1.93082093  -0.92370764  -1.28188216
H    2.49566765  -0.29921405  -1.73706103
H    1.29019517  -0.37889128  -0.82471084
O   -0.11419732  -0.93197534   3.96538665
H    0.16011138  -0.89468140   4.88168122
H    0.42451471  -1.62386308   3.58157347
O   -0.05449706  -1.04433842  -3.11237642
H   -0.60933490  -1.78931733  -2.88130662
H    0.70065992  -1.11737732  -2.52873689
O   -4.06635052  -0.23436465   1.28577892
H   -4.96416207  -0.23572889   1.61768916
H   -3.57241255  -0.74449009   1.92767391
O   -0.85621828  -2.57056054   0.85238564
H   -1.52351928  -2.42325285   1.52264057
H   -0.07931967  -2.83999902   1.34234820
O   -0.28967839  -0.00457734   0.07850872
H   -0.45950211  -0.90609568   0.35174201
H   -0.03013644   0.44506970   0.88267746
O   -3.02980692  -0.58551364  -1.27531721
H   -2.65431132  -1.43578806  -1.50393985
H   -3.53245031  -0.75174572  -0.47785350
O    2.52906030   2.25896555  -0.63370432
H    1.71423238   2.65138697  -0.94722106
H    2.94344190   1.90523997  -1.42072271
O   -1.67261647  -2.89931103  -1.77653933
H   -1.30995283  -2.97547662  -0.89398297
H   -1.88303021  -3.79861095  -2.02797036
H   -2.33142413   0.79170802  -1.28244544
