61
Energy:  -1423.99341330
O   -0.69003972   1.35708935  -2.61923288
H   -0.29492541   2.17890138  -2.32812892
H    0.04471752   0.84276211  -2.95364450
O    2.25600608   2.30950933   2.47982659
H    2.82664998   2.96046254   2.88830829
H    2.43171238   2.39082892   1.54241192
O    0.38225947   3.63271227  -1.56582075
H    0.52150145   4.48122822  -1.98637302
H   -0.25398962   3.80980009  -0.87295796
O    2.51670826  -0.41415539   2.74700377
H    2.70457817  -0.62174629   1.83166626
H    2.52757539   0.54229515   2.78328212
O   -1.54378694   3.69286558   0.37986103
H   -1.16030768   3.14032292   1.06094260
H   -2.04551189   4.35185385   0.85969265
O    1.30405834  -0.27711535  -3.57340773
H    0.91009073  -1.13013829  -3.39072427
H    1.38986662  -0.25154492  -4.52641085
O    3.46690828   0.54131130  -2.02978911
H    4.26218118   0.54777331  -2.56245326
H    2.77915530   0.25092745  -2.62887583
O   -3.07209398  -0.26345345   1.20718642
H   -3.16565559  -1.16832306   0.90937935
H   -2.62116502  -0.33314700   2.04863620
O   -0.40029452   1.83148976   1.99468769
H    0.48719691   2.01766574   2.30116659
H   -0.76082866   1.23549762   2.65122432
O   -0.90027253  -4.05085567  -0.91564878
H   -0.41833385  -3.61753020  -0.21123698
H   -0.73370775  -4.98389339  -0.78175091
O   -2.58625687   1.45355173  -0.80611924
H   -2.85263816   0.92553079  -0.05347939
H   -2.34840787   2.30189478  -0.43198855
O    2.42740248  -0.95614161   0.05161331
H    1.62420486  -0.44390998  -0.04179005
H    3.02436603  -0.58724667  -0.59937278
O   -1.51383555  -0.18862635   3.52144172
H   -1.93249395  -0.11566160   4.37913230
H   -0.83357879  -0.85115407   3.64202205
O   -0.29639039  -2.52687836  -3.14610466
H   -0.38735455  -3.11535477  -2.39666962
H   -0.50950501  -3.06998477  -3.90495210
O    0.54092418  -1.99603563   3.64282055
H    1.28741599  -1.43375746   3.43587830
H    0.85726211  -2.56683517   4.34307054
O    0.35136029  -2.56090764   0.95328842
H    0.37892380  -2.51259438   1.90887093
H    1.22174804  -2.27744418   0.67345728
O   -0.11022479   0.01531430  -0.03502208
H   -0.24911965  -0.83320538   0.38563742
H   -0.19843349   0.65207648   0.67419227
O   -2.13078059  -0.77850021  -2.10806377
H   -2.62583300  -1.34216382  -1.51355701
H   -1.52795356  -1.37232836  -2.55550040
O    2.48714835   2.42957743  -0.21705177
H    2.90899603   1.84759181  -0.84916657
H    1.81356901   2.88481900  -0.72230204
O   -3.18151314  -2.59855586  -0.33065244
H   -2.47680971  -3.22988820  -0.47571936
H   -3.98424937  -3.11598242  -0.39480966
H   -1.74834163   0.68049343  -1.76683536
