61
Energy:  -1426.22980432
O   -1.05638584   1.32955466  -2.43078107
H   -0.72991850   2.18516512  -2.15224623
H   -0.34386109   0.95866341  -2.95133848
O    2.56348139   2.42014894   2.12076345
H    3.16519225   3.06919972   2.48533028
H    2.56852454   2.59059918   1.17887539
O   -0.20655234   3.69081765  -1.35941250
H   -0.28088192   4.57551477  -1.71720850
H   -0.70795341   3.71860357  -0.54451573
O    2.57203686  -1.45162689   2.50309290
H    3.42108971  -1.23307325   2.88724836
H    2.59546304  -1.05946151   1.63023015
O   -1.71904444   3.35937242   0.91771699
H   -1.15887083   2.87563283   1.52470414
H   -2.19826466   3.97508778   1.47222076
O    0.92403950   0.07391455  -3.84662880
H    0.59556250  -0.80437435  -3.65442233
H    0.89629139   0.13690825  -4.80135058
O    3.05882576   0.90471635  -2.29853807
H    3.85995808   0.91950084  -2.82217943
H    2.37923106   0.61614539  -2.90772580
O   -4.59804815  -0.13708496   0.88900569
H   -4.27403963  -1.03145246   0.78243602
H   -5.50743751  -0.24297347   1.16834501
O   -0.03942717   1.74583379   2.33804712
H    0.87219219   2.03746379   2.32647453
H   -0.05084940   1.01853366   2.96024957
O    1.35027388  -2.93138744  -1.03693653
H    1.33359903  -3.45221753  -0.23401075
H    1.82025115  -2.13321719  -0.79552925
O   -2.87994393   1.34779356  -0.55394056
H   -3.55125624   0.91002283  -0.03055884
H   -2.57417043   2.06599013   0.00007037
O    2.33823874  -0.58401168  -0.08900975
H    1.44218580  -0.25229037  -0.03172153
H    2.74266928  -0.06410661  -0.78353585
O    0.20777922  -0.64414241   3.69684251
H    0.25417875  -0.75514330   4.64645176
H    1.08210468  -0.87758699   3.38492832
O   -0.27796557  -2.26638191  -3.06813653
H    0.29324220  -2.57125317  -2.36314926
H   -0.41818406  -3.03956076  -3.61473061
O    1.30843195  -3.77136999   1.61917937
H    1.87229002  -3.08825058   1.98200687
H    1.62171924  -4.58070855   2.02297886
O   -0.92505590  -2.15721110   1.68088308
H   -0.73183036  -1.68777466   2.49237872
H   -0.24224414  -2.82542185   1.62177007
O   -0.26282309   0.07111923   0.21187989
H   -0.51635511  -0.74256166   0.64762841
H   -0.18484987   0.70903258   0.92125891
O   -2.27337951  -0.90339473  -1.76855572
H   -2.66778154  -1.49809337  -1.13058047
H   -1.63539599  -1.44217430  -2.23645042
O    2.31047862   2.89790366  -0.53073267
H    2.61871763   2.28835676  -1.20130939
H    1.47531373   3.22267004  -0.86727133
O   -3.24877269  -2.46566008   0.28175744
H   -2.48181419  -2.44621669   0.85414582
H   -3.54793728  -3.37440003   0.31215647
H   -2.01444144   0.57698333  -1.51545355
