61
Energy:  -1432.93422606
O   -1.14626758   1.79305149  -2.10801084
H   -0.74296199   2.56106292  -1.70336915
H   -0.69991122   1.70316141  -2.94998330
O    3.29245194   1.18768299   1.49150190
H    4.09955409   1.56839897   1.83772915
H    3.07799707   1.72952362   0.73212737
O   -0.03036994   3.83792278  -0.69119691
H   -0.12847117   4.78769967  -0.75851585
H   -0.44447679   3.61232782   0.14178224
O    1.72104173  -3.03708644   2.32156941
H    2.26339102  -2.51326347   1.73190968
H    2.22094669  -3.84228983   2.45563796
O   -1.27264256   2.75874799   1.50712468
H   -0.58828352   2.19355986   1.86551963
H   -1.62443904   3.22146340   2.26762816
O    0.20930581   1.19346065  -4.42261461
H   -0.07578697   1.39091654  -5.31478339
H    0.09694125   0.24658159  -4.33879277
O    2.61425513   1.37823076  -3.08672695
H    3.36241052   1.49817968  -3.67162661
H    1.85015989   1.42830817  -3.66108099
O   -3.84438559  -0.79734064   1.54737281
H   -3.28728174  -1.11890688   2.25621856
H   -4.72433412  -0.77810569   1.92360736
O    0.66982462   0.98621451   2.25176687
H    0.62966979   0.28885545   2.90622067
H    1.60540751   1.11668147   2.09718719
O    3.08144089  -1.44178628   0.64629264
H    2.83048350  -1.36775114  -0.27445218
H    3.27373970  -0.54360365   0.91558986
O   -2.72409606   1.07255068  -0.13171914
H   -3.16980666   0.44684230   0.43930006
H   -2.30024954   1.68575231   0.46875545
O    1.86360553  -0.94224460  -1.79499357
H    2.23211557  -0.14772001  -2.18120967
H    1.20914065  -0.62525554  -1.17255843
O    0.52011165  -1.18196227   3.95176546
H    0.96549722  -1.14237265   4.79810830
H    1.00148907  -1.84587388   3.45807628
O   -0.08970568  -1.41564394  -3.62086049
H   -0.04410117  -2.27848696  -4.03275125
H    0.64709348  -1.40208283  -3.00998003
O   -2.06280884  -1.93686068   3.34364452
H   -1.23452613  -1.59772465   3.68300622
H   -2.34248634  -2.58152367   3.99358449
O   -0.72166580  -2.69788613   1.06569007
H   -1.22372662  -2.52800090   1.86275079
H    0.13050951  -3.00109464   1.37888920
O   -0.08994316  -0.28259514  -0.05080140
H   -0.32436690  -1.14952859   0.28041419
H    0.22898882   0.18991147   0.71812756
O   -2.24552194  -0.57747372  -2.12681370
H   -2.59243719  -1.32149021  -1.63455245
H   -1.56728846  -0.95537219  -2.68665649
O    2.44236498   2.60305506  -0.62729002
H    2.55606503   2.26979666  -1.51737034
H    1.63664795   3.11844090  -0.66509668
O   -3.02717964  -2.51885202  -0.47578052
H   -3.49877267  -2.06421720   0.22217295
H   -2.23281085  -2.84698646  -0.05442811
H   -1.99968615   0.70306275  -1.40492810
