61
Energy:  -1435.75021382
O   -1.05928623   1.65828554  -2.21358350
H   -0.68038494   2.46535730  -1.86530083
H   -0.61799904   1.52874863  -3.05305813
O    3.23086255   1.28815321   1.49822573
H    4.02904998   1.68970186   1.84157300
H    3.03323397   1.78680394   0.70543178
O   -0.01238907   3.83161370  -0.93470994
H   -0.10309838   4.77310337  -1.08168225
H   -0.42344200   3.68089685  -0.08350387
O    1.63145883  -2.87198522   2.51084051
H    2.18798964  -2.38101422   1.90631360
H    2.13922226  -3.65545700   2.72198054
O   -1.25163664   2.96399127   1.35398848
H   -0.60338991   2.40148045   1.77776862
H   -1.66037433   3.44396391   2.07426038
O    0.28785905   0.94456636  -4.49762106
H    0.01421651   1.08725987  -5.40370614
H    0.13407868   0.01229586  -4.34447026
O    2.64646711   1.19760186  -3.08927453
H    3.41978842   1.26645789  -3.64915383
H    1.90737913   1.21944307  -3.69714274
O   -3.64108191  -0.70306361   1.35097238
H   -3.21528281  -0.96338018   2.16777239
H   -3.65784572  -1.50189281   0.82388347
O    0.60780663   1.17322791   2.27515286
H    0.56034019   0.51636760   2.96978464
H    1.54452371   1.28073660   2.11012306
O    3.04079254  -1.38089411   0.78405409
H    2.77300165  -1.34768282  -0.13432323
H    3.22136963  -0.46956325   1.01448807
O   -2.71986547   1.24952544  -0.22912182
H   -3.13721598   0.62074325   0.35967641
H   -2.29458806   1.87845509   0.35381768
O    1.79003616  -1.00197433  -1.66004414
H    2.18303051  -0.23753597  -2.08125819
H    1.14898938  -0.63685551  -1.05014324
O    0.47319117  -0.92178827   4.06811358
H    0.91305779  -0.86250664   4.91619075
H    0.94030720  -1.61617844   3.60350972
O   -0.13463591  -1.57330401  -3.47909860
H   -0.04218578  -2.44270540  -3.86874722
H    0.58985182  -1.51102001  -2.85662765
O   -2.10416703  -1.69500196   3.45598984
H   -1.28228095  -1.35039083   3.80524375
H   -2.54458613  -2.07938760   4.21395458
O   -0.81380725  -2.64855188   1.23358231
H   -1.30617105  -2.40388886   2.01713177
H    0.04508972  -2.91338242   1.56281266
O   -0.14683958  -0.24674802   0.07047528
H   -0.39377898  -1.09123031   0.44744007
H    0.15098350   0.27181723   0.81788638
O   -2.26546771  -0.66109384  -1.98388415
H   -2.62586866  -1.40096084  -1.49506943
H   -1.59664015  -1.04915588  -2.54807331
O    2.44342628   2.58370523  -0.71987164
H    2.57163452   2.19457744  -1.58495779
H    1.64600066   3.10589581  -0.80740009
O   -3.01775591  -2.77195089  -0.40191822
H   -2.22037922  -2.94317351   0.09918562
H   -3.41280227  -3.63487076  -0.52657583
H   -1.99153029   0.70790856  -1.39810682
