61
Energy:  -1426.14579769
O   -1.61821513   2.02567321  -2.26436295
H   -1.22015902   2.74995235  -1.78145208
H   -0.87843023   1.56884269  -2.66468286
O    2.97605997   1.52482013   2.22736360
H    3.37018583   2.20465387   2.77391893
H    2.78157079   1.96492473   1.39988928
O   -0.27947900   3.77481116  -0.63802094
H   -0.27200643   4.72925909  -0.71016766
H   -0.67229948   3.60188082   0.21756016
O    4.05573327  -0.89614985   1.54890875
H    3.72954776  -0.03748313   1.81821589
H    5.00790330  -0.79870448   1.53849391
O   -1.51775835   2.89547009   1.65705551
H   -0.90637857   2.24830164   2.00865133
H   -1.87343045   3.33426128   2.42983717
O    0.52933696   0.47026626  -2.76540838
H    0.39805328   0.34992111  -1.82492260
H    0.19392184  -0.33496940  -3.15952013
O    3.10249632   1.11691676  -2.24556309
H    3.65184341   1.33873772  -2.99739091
H    2.24194647   0.93410660  -2.62274509
O   -4.89732013  -0.02697244   1.01744356
H   -4.64021378  -0.89444790   0.70501036
H   -5.80068158  -0.13681112   1.31426909
O    0.29039689   0.96118017   2.33702948
H    1.22825541   1.13818874   2.40997618
H    0.18882176   0.06709368   2.66340914
O    0.77547503  -3.05339484  -1.34432692
H    1.48708436  -2.43364340  -1.18385213
H    1.20507302  -3.90802139  -1.38025569
O   -3.11494008   1.59708052  -0.17112376
H   -3.80076458   1.10840643   0.28393035
H   -2.62875521   2.03524858   0.52734948
O    2.75920668  -1.27097654  -0.86126813
H    2.99702086  -0.48347431  -1.35067236
H    3.23485918  -1.19241091  -0.03433766
O   -0.03107308  -1.71666659   2.94279337
H    0.84884120  -2.09346321   2.94544283
H   -0.41624870  -2.00066441   3.77177880
O   -0.84615057  -1.86019912  -3.23451586
H   -0.30389941  -2.36870545  -2.63150936
H   -0.93293774  -2.41782487  -4.00766098
O    2.47572099  -2.71024369   2.87360234
H    3.08633596  -2.12126202   2.43033966
H    3.03410750  -3.37173911   3.28208754
O   -1.13596774  -2.30950517   0.49409695
H   -0.75810596  -2.22562485   1.36954907
H   -0.44046075  -2.70612619  -0.03049207
O   -0.38549546   0.20775928  -0.21503629
H   -0.67848166  -0.67655196   0.00492861
H   -0.02316498   0.55068247   0.60187995
O   -2.77187119  -0.31740251  -1.94684849
H   -3.24540990  -0.95702034  -1.41498199
H   -2.17080284  -0.84258333  -2.47517963
O    2.22595844   2.63487343  -0.10158371
H    2.57087235   2.21034046  -0.88710138
H    1.41449346   3.05205647  -0.39091871
O   -3.77181007  -2.21627760  -0.21955237
H   -2.88702820  -2.36250021   0.11512934
H   -4.11317209  -3.09467409  -0.38725276
H   -2.46360470   1.11331805  -1.43335439
