61
Energy:  -1424.19895612
O   -1.16096347   2.67794139  -1.43524126
H   -0.80678363   3.37659304  -0.88508277
H   -0.40119375   2.33377553  -1.90484926
O    3.36355540   0.95326717   1.31693942
H    4.18508679   1.27117260   1.69144464
H    3.09395162   1.64250393   0.70989878
O    0.15244887   4.30773808   0.32746332
H    0.14602923   5.25156917   0.48675400
H   -0.13364999   3.92261531   1.15575055
O    1.37165780  -3.30386875   1.19533256
H    2.00912701  -2.70091756   0.81282149
H    1.81623195  -4.15154680   1.20058626
O   -0.82190144   2.81000722   2.41021538
H   -0.22964231   2.06416621   2.50603899
H   -1.12700087   2.98997659   3.29946068
O   -0.92061993  -0.16422522  -3.76485154
H   -1.20086956  -0.17355594  -4.68005912
H   -0.51385302  -1.02008887  -3.62968515
O    0.99241564   1.21212125  -2.35781905
H    0.42053028   0.83326566  -3.02538735
H    0.71553311   0.79704086  -1.54094931
O   -3.51834077  -0.45847520   1.57403321
H   -3.55913387  -1.11560586   0.87923319
H   -3.05140591  -0.89270642   2.28792881
O    0.84001905   0.63809106   2.34789591
H    0.80755510  -0.19478834   2.81852297
H    1.76387502   0.75180224   2.12475523
O    2.99583316  -1.48489793   0.06406551
H    3.03374976  -1.28299466  -0.87082980
H    3.21756808  -0.66041025   0.49683049
O   -2.60728506   1.83006435   0.57431445
H   -3.01788948   1.06897171   0.98464827
H   -2.05693794   2.20552731   1.26161166
O    2.80242959  -0.83990814  -2.62909696
H    2.32688781  -0.00989084  -2.59499220
H    3.60223259  -0.63847733  -3.11486710
O    0.71131361  -1.88453299   3.44651096
H    1.25719414  -2.20752134   4.16339646
H    0.93332946  -2.44625225   2.70393957
O    0.58168474  -2.39656349  -3.09892154
H    0.78037317  -3.18023546  -3.61137934
H    1.42905571  -1.96844705  -2.97681255
O   -2.04785302  -1.71489265   3.49947133
H   -1.09612360  -1.80947078   3.53817437
H   -2.36153973  -2.10969768   4.31308148
O   -0.57743887  -2.51480873  -0.58630899
H    0.03175308  -2.91567805   0.03370779
H   -0.14798531  -2.60489155  -1.43700669
O   -0.11045003   0.14536513  -0.16034875
H   -0.28837479  -0.79328165  -0.21965185
H    0.21472313   0.27214591   0.73095417
O   -2.65215624   0.53266752  -1.71128649
H   -2.99813021  -0.29723190  -1.38295616
H   -2.16218636   0.29390149  -2.49814871
O    2.36262702   2.78047518  -0.40382251
H    2.07224164   2.47223723  -1.26224988
H    1.69841990   3.41731812  -0.14020950
O   -3.26180746  -1.96348128  -0.71824967
H   -2.37392021  -2.31075406  -0.63286998
H   -3.80308129  -2.73116860  -0.90239814
H   -2.14230363   1.64055503  -0.81165518
