61
Energy:  -1427.11456376
O   -1.41560817   1.63681005  -2.13880282
H   -0.98546007   2.43376554  -1.82885702
H   -0.90228637   1.36778703  -2.90061592
O    3.05332976   1.64394469   1.68442950
H    3.78953912   2.14789785   2.03121305
H    2.85187994   2.05939131   0.84594639
O   -0.27471049   3.80228620  -0.91491921
H   -0.36733318   4.73643008  -1.10207715
H   -0.61558461   3.70062058  -0.02626810
O    1.78051368  -2.89635718   2.32121228
H    2.35220843  -2.27485318   1.87051311
H    2.33927908  -3.65382908   2.49513579
O   -1.31049911   3.06380432   1.52066517
H   -0.68509524   2.43538382   1.88148303
H   -1.60479093   3.57089797   2.27728938
O    0.12737035   0.77206075  -4.22481263
H   -0.10511134   0.80110837  -5.15289686
H    0.18540763  -0.16139761  -4.02105051
O    2.54907907   1.37607385  -3.05522157
H    3.25118939   1.44340196  -3.70232269
H    1.75400082   1.25863199  -3.57511563
O   -3.75289930  -0.55498449   1.77015565
H   -4.60439942  -0.63340943   2.20030552
H   -3.18302818  -1.15163836   2.25542147
O    0.43047273   1.08586670   2.23104535
H    0.41282810   0.37643465   2.87340560
H    1.35784435   1.30529965   2.14125173
O    3.20389289  -1.03705711   1.03432003
H    2.96483146  -1.01241182   0.10778126
H    3.28877366  -0.11712348   1.28481798
O   -2.79920275   1.28708015   0.05192191
H   -3.16664888   0.65477164   0.66949874
H   -2.37437134   1.94316667   0.60446205
O    2.06140645  -0.79235705  -1.43220003
H    2.35165135  -0.04217682  -1.95106357
H    1.26884989  -0.48674886  -0.99096363
O    0.36680353  -1.14164364   3.87843822
H    0.74911265  -1.07712935   4.75360077
H    0.92929992  -1.76294068   3.41603187
O    0.39809952  -1.75703273  -3.36584348
H   -0.23236270  -2.30345616  -2.89661999
H    1.10030565  -1.60394012  -2.73362434
O   -2.01479527  -2.25910291   3.06629613
H   -1.25690789  -1.83019658   3.46363470
H   -2.26877814  -2.93150631   3.69843393
O   -0.53148309  -2.78326760   0.80435303
H   -1.14550331  -2.71299503   1.53529270
H    0.31267640  -2.96632074   1.21680685
O   -0.24227313  -0.21867880  -0.08165339
H   -0.35892765  -1.11704899   0.22746565
H    0.02001761   0.27115534   0.69776814
O   -2.75704360  -0.60441757  -1.77172090
H   -2.29097633  -1.44039038  -1.78447238
H   -3.65618068  -0.82723345  -2.01283799
O    2.24178802   2.70425687  -0.65698732
H    2.43397478   2.33753779  -1.52001294
H    1.41057901   3.16488374  -0.77164472
O   -1.47010495  -3.02926194  -1.76310439
H   -1.12051177  -3.10215572  -0.87501490
H   -1.69520706  -3.92711934  -2.00685214
H   -2.20480875   0.75203925  -1.22230351
