61
Energy:  -1425.35226446
O   -1.37668205   2.19605860  -1.75567290
H   -0.69807046   2.82167966  -1.50206604
H   -1.02851651   1.76836838  -2.53803706
O    3.54266861   0.96568575   1.31089915
H    4.43509105   1.22995086   1.53445674
H    3.34117483   1.45277541   0.51191495
O    0.52264792   3.91226512  -0.81663754
H    0.61767721   4.83506039  -1.05254042
H    0.20211603   3.92687928   0.08518150
O    1.18781872  -2.72931579   2.76693794
H    1.80993757  -2.37423073   2.13202488
H    1.59162374  -3.54272083   3.06950297
O   -0.55688048   3.53304735   1.67047916
H    0.04719970   2.85977736   1.98357102
H   -0.66659834   4.12270636   2.41646581
O   -0.36872642   0.69466511  -3.83332329
H   -0.76199005   0.74009286  -4.70482308
H   -0.54915234  -0.19671149  -3.53478337
O    2.27873394   0.64178053  -3.07451468
H    2.83685148   0.89829382  -3.80863837
H    1.38599919   0.75232937  -3.40167743
O   -4.08802181  -2.01157889  -0.14836070
H   -3.53511406  -2.71903152  -0.48007691
H   -4.98262608  -2.30538564  -0.32038581
O    1.01026891   1.39853873   2.25471578
H    0.80721720   0.75499875   2.93358111
H    1.94437017   1.27951762   2.08290004
O    2.67793439  -1.61419007   0.84408395
H    2.41521326  -1.63775060  -0.07605427
H    3.06994353  -0.74862321   0.95964643
O   -2.33696692   1.70072342   0.64388487
H   -2.31381980   0.99602389   1.29126005
H   -1.83129584   2.40918042   1.04215274
O    1.92891918  -1.77984753  -1.82138328
H    2.52798914  -2.38512362  -2.25840489
H    2.12762891  -0.92606785  -2.20583944
O    0.09659141  -0.54342879   3.99609274
H    0.25361757  -0.55296339   4.94027690
H    0.51581707  -1.34179605   3.67501422
O   -0.74106152  -1.70712240  -2.54070167
H   -1.18044711  -2.50733000  -2.25288238
H    0.15622251  -1.79731937  -2.21980026
O   -2.15148699  -0.42723291   2.37854113
H   -1.48237841  -0.41490409   3.06291935
H   -2.93844303  -0.74930963   2.81808480
O   -0.74851749  -2.24939699   0.86746506
H   -1.35131287  -1.70062026   1.36917581
H   -0.09955327  -2.54070071   1.50794881
O    0.07505059   0.24080510  -0.07663589
H   -0.05053998  -0.67728145   0.16331397
H    0.48311929   0.63648307   0.69352690
O   -2.54710122  -0.08981118  -1.26492773
H   -3.18289693  -0.67794586  -0.85738232
H   -1.91388153  -0.67339187  -1.68289693
O    2.76098490   2.27746268  -0.90048918
H    2.59161988   1.71308762  -1.65482871
H    2.02225975   2.88597613  -0.88537644
O   -2.05388948  -3.65283971  -1.05549569
H   -1.54591786  -3.28653026  -0.33160753
H   -1.92780388  -4.59889320  -0.98257742
H   -1.99643198   1.24331004  -0.74912381
