61
Energy:  -1423.83906540
O   -1.20017817   1.56564442  -2.50563594
H   -0.99200735   2.48363597  -2.33188820
H   -0.40092423   1.20720853  -2.89157467
O    2.41849416   1.85412776   2.32731441
H    2.91882799   2.62535401   2.59397520
H    2.40528094   1.89546518   1.37109870
O   -0.73654641   4.10103082  -1.72704558
H   -0.54730717   5.00599727  -1.97494896
H   -0.99770860   4.15365533  -0.80766708
O    3.04855298  -0.80940958   2.20723738
H    2.87443819   0.12763804   2.29588073
H    3.94524969  -0.91791441   2.52408681
O   -1.73869198   3.74256022   0.82232736
H   -1.22368203   3.17283956   1.39365473
H   -2.24481711   4.29013319   1.42252153
O    0.88436383   0.22176866  -3.72083524
H    0.47339192  -0.63244682  -3.58798254
H    0.81283783   0.37866667  -4.66237594
O    3.28044345   0.21696920  -2.35753502
H    2.49419809   0.23409371  -2.90320602
H    3.99544630   0.42085294  -2.96039006
O   -3.17942420  -0.05650171   1.68420441
H   -3.33299629  -0.92648935   1.31573599
H   -2.58980830  -0.20927676   2.42261128
O   -0.33616257   1.82639056   2.20655279
H    0.60111153   1.90041782   2.38618874
H   -0.65218914   1.18363683   2.84155412
O    1.02470539  -3.46866344  -1.28870687
H    1.74729723  -2.89648205  -1.03044084
H    1.41922788  -4.33821578  -1.35550939
O   -2.81828015   1.55212069  -0.44056751
H   -3.04635880   1.02981493   0.32846347
H   -2.54860539   2.39865376  -0.08435248
O    2.88824957  -1.75197459  -0.43295169
H    3.13478834  -1.06416711  -1.05131352
H    2.98225676  -1.34524795   0.42842392
O   -1.22085202  -0.33062151   3.66761425
H   -1.47399047  -0.39419731   4.58854361
H   -0.52962535  -0.98445730   3.56303746
O   -0.46686605  -2.09958179  -3.14316692
H    0.06070075  -2.60836482  -2.52750066
H   -0.76554649  -2.73958878  -3.78924191
O    0.82101579  -2.12419234   3.11502416
H    1.62308521  -1.67832678   2.84277354
H    1.12210271  -2.83690615   3.67859982
O   -0.50463651  -2.40691198   0.72205639
H   -0.02008763  -2.43636064   1.54702730
H    0.05258901  -2.87416398   0.09963601
O   -0.20179912   0.23979262  -0.02502304
H   -0.28389921  -0.67333801   0.25008399
H   -0.35091152   0.74546946   0.77390642
O   -2.40674976  -0.65840260  -1.81058861
H   -2.80777166  -1.25814579  -1.18152472
H   -1.78243763  -1.19966858  -2.29380425
O    2.12891133   1.64059269  -0.32016112
H    2.64275376   1.28275330  -1.04414232
H    1.31014491   1.14511788  -0.33908532
O   -3.17265997  -2.37529643   0.20062343
H   -2.26276904  -2.55034587   0.44080676
H   -3.61963985  -3.21214676   0.32759732
H   -2.07772574   0.82928716  -1.52578043
