61
Energy:  -1431.82105858
O   -1.49636648   1.42639543  -2.26839960
H   -1.01600010   2.21223627  -2.00775776
H   -0.93319085   1.00519151  -2.91774720
O    3.04759503   1.64684054   1.64694767
H    3.79531214   2.15906527   1.95480608
H    2.86031633   1.99555820   0.77542341
O   -0.21500173   3.61154668  -1.20046595
H   -0.27515812   4.51050487  -1.52371081
H   -0.51152194   3.66290346  -0.29180205
O    1.60445461  -2.74503979   2.65358187
H    2.21009329  -2.18902481   2.16339722
H    2.13018103  -3.50143797   2.91378442
O   -1.11098583   3.36002644   1.39041324
H   -0.54885627   2.69849670   1.79367569
H   -1.27519039   3.99354981   2.08892370
O    0.14372465   0.20071759  -4.11088245
H   -0.19983684   0.19834971  -5.00429822
H    0.29439802  -0.72279519  -3.90925521
O    2.58317460   1.07203437  -3.12553327
H    3.23769336   1.19618538  -3.81286403
H    1.77297777   0.87971271  -3.59757704
O   -3.96430773  -0.54064732   1.26453057
H   -4.86554990  -0.68309603   1.55384487
H   -3.43126722  -1.03365972   1.88826002
O    0.40119286   1.25490301   2.22836024
H    0.31551989   0.57505835   2.89671886
H    1.34442014   1.39885344   2.15198995
O    3.10819902  -1.07492907   1.19900447
H    2.89182589  -1.10176248   0.26696666
H    3.22690393  -0.14475302   1.39113337
O   -2.74186419   1.61857270   0.04767779
H   -3.21772177   1.08569938   0.68473150
H   -2.26929067   2.26078492   0.57727157
O    2.04897597  -0.94246910  -1.32386441
H    2.38401906  -0.23723892  -1.87760475
H    1.26953355  -0.57245633  -0.90938652
O    0.04984111  -0.89545910   3.93922899
H    0.31465219  -0.81214117   4.85528852
H    0.64536683  -1.55089100   3.57592472
O    0.78260163  -2.33252579  -3.26171326
H    1.28566469  -3.07053151  -3.60596167
H    1.32743851  -1.97750372  -2.55932878
O   -2.29670987  -1.96599180   2.93859254
H   -1.56545735  -1.53535127   3.38136825
H   -2.60234413  -2.62323412   3.56377418
O   -0.54888751  -2.65683867   0.91704095
H   -1.24050035  -2.56386754   1.57222024
H    0.23927059  -2.84786011   1.42551853
O   -0.22319410  -0.13179255  -0.04886464
H   -0.36774400  -1.01929258   0.27928298
H    0.02334448   0.37335572   0.72591004
O   -2.93942330  -0.57339196  -1.34671845
H   -2.45943814  -1.37188859  -1.56637552
H   -3.45007092  -0.80598814  -0.57123804
O    2.28195807   2.52215704  -0.79394637
H    2.49140681   2.11103113  -1.63259920
H    1.44874568   2.96788767  -0.94663284
O   -1.45715382  -2.76588995  -1.71793331
H   -0.69822572  -2.74616925  -2.30091793
H   -1.09443274  -2.98261376  -0.85904096
H   -2.29056756   0.75886017  -1.22038054
