61
Energy:  -1427.27655680
O   -1.01984376   1.36094748  -2.46182341
H   -0.64340075   2.20193868  -2.20248521
H   -0.32407046   0.92922739  -2.95755430
O    2.35089649   2.15156469   2.35556317
H    2.94655360   2.77906218   2.76504010
H    2.45208911   2.30267320   1.41579824
O    0.06367034   3.68571724  -1.52690630
H    0.16142229   4.52384610  -1.97880939
H   -0.56234947   3.86316862  -0.82487919
O    1.93116842  -0.58726539   2.53552954
H    2.19899036  -0.80194306   1.64198785
H    2.20362290   0.32243530   2.65571713
O   -1.80930938   3.72734580   0.46095804
H   -1.32545195   3.21854086   1.11152038
H   -2.31617581   4.35518539   0.97587135
O    0.95366715   0.00540913  -3.79787336
H    0.59576279  -0.86568882  -3.62662886
H    0.94105464   0.08682696  -4.75152105
O    3.13089818   0.65211796  -2.20226260
H    3.91627826   0.75347861  -2.73997628
H    2.43593552   0.44907047  -2.82838596
O   -3.00564936  -0.16149936   1.68449976
H   -3.22054237  -1.02902538   1.34178786
H   -2.32588960  -0.32350592   2.33864990
O   -0.35480497   1.99236950   1.95972018
H    0.56543303   2.16150527   2.16167800
H   -0.63573086   1.36607171   2.62685103
O    1.18771413  -3.34470492  -1.04520797
H    1.70176086  -2.58644190  -0.76767417
H    1.79069215  -4.08422100  -0.96927824
O   -2.78441219   1.35857107  -0.52019286
H   -2.95480854   0.87995008   0.29105241
H   -2.58996543   2.25157788  -0.23565614
O    2.25239909  -1.01306645  -0.18076414
H    1.39831390  -0.58229925  -0.14597980
H    2.75797713  -0.49345577  -0.80576609
O   -0.76282496  -0.33691882   3.36540534
H   -0.88677582  -0.74481659   4.22242777
H    0.14194768  -0.54268327   3.13028982
O   -0.32457971  -2.31955425  -3.08288643
H    0.20479384  -2.74446853  -2.40802100
H   -0.58842364  -3.03214574  -3.66497886
O    0.93419999  -3.07567326   3.21825753
H    1.50229923  -2.30967651   3.13613527
H    1.38491633  -3.64275559   3.84396054
O   -0.58199939  -2.68759483   0.96342505
H   -0.16328396  -2.89554838   1.79868822
H    0.00236032  -3.05960486   0.30284643
O   -0.23627021  -0.04272323   0.06928409
H   -0.49325550  -0.83416276   0.54237381
H   -0.25791788   0.64951552   0.73001757
O   -2.31667767  -0.85001568  -1.86461609
H   -2.74343401  -1.42693622  -1.23115451
H   -1.67902670  -1.40987008  -2.30755641
O    2.28360844   2.51483054  -0.32610577
H    2.64093463   1.93801468  -1.00126005
H    1.56137755   2.97108241  -0.75790274
O   -3.17595662  -2.48009053   0.18966242
H   -2.31225779  -2.73725908   0.51233952
H   -3.72889189  -3.24522453   0.34797980
H   -1.99382565   0.60753477  -1.54372967
