61
Energy:  -1427.70001715
O   -1.02593624   1.64908381  -2.23631269
H   -0.63156952   2.45875686  -1.91206543
H   -0.59977042   1.49547914  -3.07953279
O    2.94615622   1.12112363   1.57696948
H    3.20273462   0.24453607   1.29062418
H    2.90553152   1.63479666   0.77029637
O    0.07263058   3.84304895  -1.03972969
H    0.08234980   4.78463788  -1.21162404
H   -0.37480917   3.75738546  -0.19789165
O    1.69818444  -2.56742499   2.54701249
H    2.31372202  -2.19122854   1.91786898
H    2.14858535  -3.33848395   2.89174274
O   -1.31301042   3.16527758   1.22808453
H   -0.71367720   2.58950407   1.70297021
H   -1.70897443   3.71187984   1.90681151
O    0.27599215   0.85174821  -4.51890207
H   -0.01969733   0.95584029  -5.42331592
H    0.13203465  -0.07436710  -4.32443224
O    2.67137729   1.08786514  -3.17646126
H    3.42513628   1.24722806  -3.74451292
H    1.91709116   1.11580887  -3.76510668
O   -3.59175483  -0.60539544   1.40084235
H   -3.62308052  -1.41099262   0.88483487
H   -3.20494137  -0.86990430   2.23549333
O    0.37180975   1.30368136   2.28663102
H    0.29590697   0.68665502   3.01446967
H    1.31157916   1.35438298   2.11200383
O    3.36708248  -1.47076955   0.65950353
H    2.91527618  -1.39022325  -0.18050552
H    4.27233957  -1.67661655   0.42633305
O   -2.70016273   1.30454988  -0.25147290
H   -3.09830212   0.69914469   0.37398807
H   -2.32075755   1.99549507   0.29155409
O    1.85452371  -1.01525416  -1.57332850
H    2.22433214  -0.27395116  -2.05285268
H    1.20398587  -0.62361492  -0.99053259
O    0.36441121  -0.72799523   4.14617676
H    0.86858886  -0.52451908   4.93398016
H    0.91253323  -1.34682038   3.66363191
O   -0.09431260  -1.62255799  -3.37491228
H   -0.01172591  -2.50659784  -3.73252215
H    0.63181886  -1.54521359  -2.75605624
O   -2.15815923  -1.64907646   3.54940260
H   -1.35722142  -1.26433219   3.90535527
H   -2.61380471  -2.00385629   4.31278344
O   -0.80577127  -2.58816858   1.35386234
H   -1.31248079  -2.35084023   2.13049131
H    0.07489766  -2.76247621   1.68593303
O   -0.13205105  -0.23812840   0.09754390
H   -0.40885343  -1.05767890   0.50736005
H    0.07452269   0.33973256   0.83214301
O   -2.25039316  -0.65343088  -1.95393666
H   -2.61420127  -1.37425767  -1.43985082
H   -1.56775368  -1.05998597  -2.48774200
O    2.41606368   2.39725989  -0.76588896
H    2.56997351   2.06069835  -1.64865163
H    1.66994290   2.98921085  -0.86143841
O   -2.99956155  -2.71829122  -0.30750634
H   -2.21048762  -2.89007973   0.20638362
H   -3.41741271  -3.57458059  -0.39916210
H   -1.97003188   0.73184085  -1.40368726
