61
Energy:  -1424.47161297
O   -1.48126253   1.80431489  -2.22580235
H   -1.03923906   2.53414208  -1.79198282
H   -1.02547063   1.71073457  -3.06229999
O    3.26384727   1.19363175   1.24728386
H    4.08709119   1.58157546   1.54393343
H    3.00137960   1.73033564   0.49942591
O   -0.22140193   3.74138182  -0.78028855
H   -0.29524925   4.69396693  -0.83825439
H   -0.57433215   3.52539515   0.08285794
O    1.90139840  -3.03130319   2.43934042
H    2.26681676  -2.50767891   1.72623532
H    2.62647583  -3.58714690   2.72487912
O   -1.33394205   2.72037187   1.50607046
H   -0.62903696   2.16696127   1.84234025
H   -1.70359028   3.13748781   2.28427758
O   -0.06715688   1.26278684  -4.51755139
H   -0.36274508   1.45835343  -5.40671570
H   -0.14873500   0.31213277  -4.44117281
O    2.41335530   1.42017680  -3.30909762
H    3.11909328   1.59619746  -3.93133750
H    1.61256912   1.48739487  -3.82915058
O   -3.67415107  -0.86298171   1.67526953
H   -4.55181326  -1.14720456   1.93053076
H   -3.18589330  -0.82388591   2.49764883
O    0.69469137   1.01482553   2.18000223
H    0.68112248   0.31623093   2.83422950
H    1.62251214   1.13763432   1.97925747
O    2.90143393  -1.44989534   0.49664419
H    2.65518050  -1.39907498  -0.42694034
H    3.13897697  -0.55284509   0.73139086
O   -2.83948992   1.06477488  -0.10177731
H   -3.24614706   0.42886288   0.48684628
H   -2.37983712   1.67037497   0.47977208
O    1.72152300  -0.90229402  -1.97459830
H    1.11603936  -0.54758722  -1.32359561
H    2.10804219  -0.13056942  -2.38845323
O    0.60653189  -1.10879234   3.91702791
H    1.08703340  -1.06437495   4.74369425
H    1.02784885  -1.81861896   3.43239399
O   -0.29687130  -1.34928376  -3.73544230
H   -0.24655852  -2.20256454  -4.16626986
H    0.45608670  -1.33397384  -3.14463632
O   -2.16014473  -0.84609507   3.92444258
H   -1.21448357  -0.99425798   3.92230837
H   -2.42631565  -1.00756287   4.82960171
O   -0.38317067  -4.14254318   1.37178934
H    0.43784690  -3.82498398   1.74771243
H   -0.32170430  -5.09588055   1.43180249
O   -0.11123638  -0.07088666  -0.18762771
H   -0.57161762  -0.87343180   0.05773377
H    0.22242430   0.27679703   0.63942637
O   -2.33998785  -0.66246325  -2.02287124
H   -2.29377197  -1.34971629  -1.35820652
H   -1.72492639  -0.94245866  -2.70076048
O    2.30628879   2.61230874  -0.82746114
H    2.39499115   2.28233961  -1.72159990
H    1.46410542   3.06720306  -0.82196868
O   -1.80768704  -2.18632773   0.16043043
H   -1.36949488  -2.94107335   0.55359520
H   -2.48273579  -1.94373192   0.79421928
H   -2.17592638   0.71259906  -1.42269640
