61
Energy:  -1426.99593220
O   -1.10741620   1.48694414  -2.33192253
H   -0.74130525   2.25876417  -1.90007943
H   -0.53871346   1.34271900  -3.08823474
O    3.36713829   1.41171829   1.65687200
H    4.13745545   1.87306445   1.98853905
H    3.14045110   1.87287315   0.84929478
O   -0.13263508   3.54725314  -0.83639508
H   -0.25675541   4.48799971  -0.96218019
H   -0.59487788   3.35103975  -0.02149402
O    1.36585014  -2.70144681   2.66571462
H    2.00547345  -2.23849527   2.12461413
H    1.79881824  -3.52245921   2.89961441
O   -1.47255090   2.62988496   1.37984866
H   -0.74760083   2.18261712   1.81646143
H   -1.94694989   3.06568520   2.08784273
O    0.56488410   0.74869418  -4.38238941
H    0.33775210   0.83689757  -5.30805839
H    0.49086451  -0.18908822  -4.20542293
O    2.87016007   1.22887292  -2.94543409
H    3.63438888   1.39019442  -3.49875274
H    2.13708341   1.17479644  -3.55854598
O   -4.54011376  -0.93626357   0.48331891
H   -4.15536487  -1.76673806   0.20311851
H   -5.48386814  -1.09612095   0.48105189
O    0.71044022   1.26650954   2.30780004
H    0.64655585   0.66081530   3.04623429
H    1.65041365   1.40508002   2.19169654
O    3.05489377  -1.29355980   1.11540990
H    3.28859238  -0.38891050   1.32331960
H    2.90797468  -1.29215396   0.16955333
O   -2.74738709   0.89618934  -0.37853774
H   -3.42021161   0.34350411   0.01905256
H   -2.40340767   1.41577249   0.34805937
O    2.10216355  -0.97736700  -1.46808836
H    2.50438741  -0.22956281  -1.90994436
H    1.40862207  -0.59419536  -0.93104874
O    0.46143451  -0.66081525   4.26785124
H    0.87513283  -0.67879026   5.13084744
H    0.82964744  -1.41612640   3.80942332
O    0.33459384  -1.78783987  -3.34580476
H    0.54436964  -2.64723658  -3.71140463
H    1.01374933  -1.63416663  -2.68902154
O   -2.04321845  -0.67907314   3.10666310
H   -1.28494250  -0.62834400   3.68862186
H   -2.79560078  -0.72706326   3.69645088
O   -0.97624509  -2.30833294   1.23854863
H   -1.43870309  -1.78048487   1.88950244
H   -0.18703016  -2.60827212   1.68955654
O    0.03409966  -0.09900552   0.02170952
H   -0.31851904  -0.90287692   0.40339352
H    0.33055203   0.41374916   0.77366064
O   -1.95811256  -0.97855625  -2.04727197
H   -2.36436897  -1.72036074  -1.59903801
H   -1.21983386  -1.36017580  -2.52218557
O    2.45482684   2.58818327  -0.58423206
H    2.63917530   2.21449951  -1.44597909
H    1.58872352   2.98544860  -0.67521079
O   -2.96648275  -2.99810710  -0.47957794
H   -2.26312741  -2.91705508   0.16459105
H   -3.10804253  -3.94110168  -0.56296803
H   -1.89135726   0.46333387  -1.51768249
