61
Energy:  -1425.45282784
O   -1.00284811   1.84748584  -1.91260233
H   -0.62379093   2.60789091  -1.47177171
H   -0.55456636   1.81178835  -2.75758813
O    3.11113259   1.06737605   1.60522411
H    3.93827632   1.35395814   1.99243955
H    2.96626691   1.66976936   0.87558854
O    0.02928207   3.88166548  -0.42255419
H   -0.07523999   4.83188127  -0.47151256
H   -0.41851133   3.63231015   0.38586083
O    1.76529373  -3.03377623   2.06903937
H    2.12381829  -2.45005773   1.40048519
H    2.35811673  -3.78528400   2.07440673
O   -1.32647892   2.73334880   1.68070670
H   -0.68407245   2.12955495   2.05350528
H   -1.71015893   3.17378779   2.43901731
O    0.30899404   1.47805991  -4.29033527
H   -0.01465497   1.73959829  -5.15235664
H    0.19200991   0.52829593  -4.26808777
O    2.77452885   1.73690036  -3.07415827
H    3.44895013   2.04095080  -3.68156350
H    1.96603066   1.75150111  -3.58635877
O   -3.79636699  -0.88612642   1.56057793
H   -4.68821100  -0.87262277   1.90794483
H   -3.27137489  -1.27139556   2.26213536
O    0.49521994   0.82681304   2.41990537
H    0.49080045   0.10828010   3.05229981
H    1.42261451   0.98739428   2.24559291
O    2.44420740  -1.20283320   0.18381721
H    1.54388175  -0.91777462   0.02765326
H    2.85470330  -0.46508196   0.63486939
O   -2.67848357   1.05371479  -0.04987394
H   -3.11554711   0.40194707   0.49821926
H   -2.31110620   1.68233795   0.57149443
O    2.36331141  -0.95409412  -2.56581594
H    2.57027699  -1.13751685  -1.64943546
H    2.66536678  -0.05653853  -2.70505803
O    0.49209197  -1.46721660   3.95366163
H    0.94402958  -1.50309191   4.79669023
H    1.00279747  -2.04141622   3.38295458
O   -0.05119697  -1.18194543  -3.74061517
H   -0.05729923  -1.96205737  -4.29525016
H    0.79492144  -1.21160485  -3.29403282
O   -2.11076330  -2.18566606   3.35710587
H   -1.27304360  -1.87855279   3.70371661
H   -2.42484536  -2.81244863   4.00881740
O   -0.81300295  -2.91298470   1.04505656
H   -1.30038010  -2.79438936   1.86030530
H    0.06036371  -3.18677914   1.32523355
O   -0.14391231  -0.44208265   0.09007468
H   -0.45316720  -1.30536866   0.36453876
H    0.01608630   0.02704015   0.90894957
O   -2.16314971  -0.48228476  -2.12877926
H   -2.52052837  -1.25351567  -1.68864833
H   -1.46995802  -0.82692637  -2.69175288
O    2.50224552   2.63567948  -0.47576001
H    2.63661586   2.37567661  -1.38711886
H    1.69780484   3.15423245  -0.49024659
O   -3.02833451  -2.48429631  -0.58370724
H   -2.27656707  -2.90968466  -0.17124839
H   -3.48812923  -2.05646526   0.13863704
H   -1.89741269   0.73038072  -1.32187547
