61
Energy:  -1423.04400789
O   -1.42335922   1.64289885  -2.12191331
H   -0.94175372   2.39038862  -1.76758715
H   -1.05219779   1.50989925  -2.99414158
O    3.20143905   1.32411385   1.09709458
H    3.88196164   1.77878863   1.59347316
H    3.00374690   1.91131512   0.36747528
O   -0.14854707   3.73084999  -0.85952722
H   -0.51011400   4.58360957  -1.10098590
H   -0.53426145   3.54002514  -0.00451719
O    1.92395953  -2.86289300   1.98519249
H    2.50200853  -2.37182285   1.40129069
H    2.35787204  -3.70876543   2.09677930
O   -1.29726573   2.82883061   1.45525837
H   -0.62569094   2.26047308   1.83233775
H   -1.68775354   3.27152152   2.20876741
O   -0.12886636   1.15466681  -4.48899749
H   -0.03897970   1.42034084  -5.40418575
H    0.74431291   1.27750743  -4.11657303
O    2.15505479   1.32456942  -3.06638668
H    2.08549751   0.47521244  -2.63051243
H    2.34999692   1.94120653  -2.36070396
O   -3.50808658  -0.90119374   1.61001917
H   -3.59977840  -1.67004189   1.04726080
H   -2.99969569  -1.21150726   2.35933624
O    0.67887526   1.05562598   2.17403623
H    0.74057759   0.37889083   2.84816842
H    1.58137334   1.18853775   1.88409913
O    3.50867643  -1.32181977   0.34361423
H    4.41564053  -1.45891805   0.07002322
H    3.47097449  -0.39925092   0.59595749
O   -2.91048811   1.14266592  -0.02241927
H   -3.21710832   0.47180630   0.58763258
H   -2.43150095   1.76442246   0.52550587
O    1.65783212  -0.97626617  -1.68924642
H    2.36756708  -1.23825415  -1.10284175
H    0.94816894  -0.71175340  -1.10388926
O    0.85346314  -1.13245120   3.84906685
H    1.35112606  -1.16824204   4.66594046
H    1.28707497  -1.76473733   3.27598145
O   -0.51516818  -1.37395572  -3.41768143
H    0.31554358  -1.47293551  -2.95254402
H   -0.37546848  -0.62922530  -4.00256812
O   -1.75188384  -2.00063584   3.48764191
H   -0.91452419  -1.63567004   3.77375487
H   -2.11501997  -2.41182109   4.27204658
O   -0.71834959  -2.81373656   1.08123658
H   -1.11963489  -2.64779331   1.93426928
H    0.19848282  -3.00365469   1.28018703
O   -0.30391742  -0.32077989   0.03972133
H   -0.51648795  -1.18999594   0.37958758
H    0.02163066   0.16114912   0.79998098
O   -2.59991100  -0.69233268  -1.87322886
H   -2.88181205  -1.46839890  -1.38899249
H   -1.93138386  -1.01592729  -2.47704161
O    2.51318796   3.04090336  -0.93098527
H    1.60214454   3.33308018  -0.90158385
H    2.99951429   3.80280520  -1.24598391
O   -3.11865767  -2.87832893  -0.30276355
H   -2.25621682  -3.08417772   0.05786632
H   -3.45853019  -3.71976306  -0.60724198
H   -2.29019451   0.63950088  -1.29091133
