61
Energy:  -1429.55657691
O   -0.94951619   1.65936637  -2.21153426
H   -0.61296525   2.47124257  -1.83229508
H   -0.49461439   1.57947811  -3.04993396
O    3.13572614   1.27956037   1.60856150
H    3.95626824   1.62578434   1.95937695
H    2.97613092   1.79524993   0.81810246
O    0.00373923   3.83961504  -0.87250951
H   -0.08964203   4.78009461  -1.02419985
H   -0.45876597   3.68220140  -0.04938027
O    1.53416251  -2.84483585   2.57718803
H    2.10560386  -2.36740866   1.97573154
H    2.00168367  -3.66081767   2.75559624
O   -1.37215059   2.93752904   1.31762687
H   -0.72658565   2.38309245   1.75589371
H   -1.80449656   3.41051213   2.02867948
O    0.45242056   1.09428098  -4.50471579
H    0.19462199   1.27233589  -5.40918702
H    0.30848726   0.15437614  -4.39474338
O    2.74077305   1.26797614  -2.98260368
H    3.53294110   1.38403837  -3.50722849
H    2.02434289   1.31826816  -3.61539937
O   -3.65484277  -0.72355407   1.36759499
H   -3.29619272  -1.07057288   2.18440583
H   -4.23198928  -1.41598055   1.04560226
O    0.48264040   1.16648613   2.27748300
H    0.40825910   0.52161035   2.98092774
H    1.42510763   1.27688940   2.15179094
O    2.99136260  -1.38417068   0.85601985
H    2.75823978  -1.34910789  -0.07169573
H    3.14806582  -0.47161403   1.09874666
O   -2.69685172   1.15707303  -0.32204931
H   -3.09265029   0.51947505   0.27212587
H   -2.32717093   1.82547577   0.25484387
O    1.85941313  -0.98067339  -1.64017837
H    2.26028825  -0.19904793  -2.02043174
H    1.18373373  -0.64222338  -1.05269153
O    0.30577920  -0.91033332   4.09987870
H    0.72725044  -0.82975601   4.95550779
H    0.79742870  -1.60016766   3.65418688
O    0.04331003  -1.46245933  -3.59206426
H    0.12231290  -2.33596476  -3.97544219
H    0.73360067  -1.42768662  -2.92985466
O   -2.23449670  -1.80996344   3.50086675
H   -1.42279813  -1.44040763   3.84843801
H   -2.57493155  -2.35269776   4.21204564
O   -0.87797770  -2.62953662   1.24080139
H   -1.41751071  -2.41729543   2.00243756
H   -0.02816664  -2.87181926   1.60870371
O   -0.14295723  -0.27622349   0.04036584
H   -0.42311675  -1.10978739   0.41840513
H    0.11384998   0.25490294   0.79414739
O   -2.15594503  -0.67771829  -2.12541710
H   -2.48314551  -1.44777597  -1.66046242
H   -1.46194210  -1.01595096  -2.69127082
O    2.47691588   2.63425091  -0.61324584
H    2.61298931   2.23684604  -1.47335353
H    1.66781877   3.13713541  -0.70652440
O   -2.77192783  -2.93525353  -0.74213297
H   -2.10514510  -2.94468022  -0.05544252
H   -3.02475994  -3.85284882  -0.84375309
H   -1.91598551   0.64746614  -1.46544809
