61
Energy:  -1424.66709489
O   -1.33984370   1.89315900  -2.15450195
H   -1.33953940   2.78469633  -1.80608706
H   -0.63168048   1.88691989  -2.79847227
O    2.85908878   1.92389022   0.90671727
H    3.53796561   2.59851942   0.89143534
H    2.64773617   1.77518921  -0.01493881
O   -1.36657829   4.27794902  -0.90770316
H   -1.60584061   5.20321074  -0.96133290
H   -1.58517940   4.02513928  -0.01074573
O    2.02061077  -2.15993290   3.09538934
H    2.58573136  -1.69680887   2.47701510
H    2.57619871  -2.85002662   3.45777662
O   -1.98170496   3.01665587   1.46455712
H   -1.14750092   2.66943805   1.78042931
H   -2.41169456   3.35835841   2.24850876
O    0.73382334   1.55294608  -3.89810562
H    0.95871935   2.04795495  -4.68589991
H    0.37846297   0.72717834  -4.22682815
O    3.16576632  -1.48861953  -1.40344040
H    3.97997346  -1.56302618  -1.90119760
H    2.86075296  -0.59750587  -1.57407195
O   -3.53434640  -0.99589350   1.43308562
H   -3.00998615  -1.15517322   2.21788378
H   -4.39412056  -1.36192735   1.64054518
O    0.36942095   1.76721273   2.11585543
H    0.46250788   1.16809670   2.85654879
H    1.26755567   1.94476957   1.83646422
O    3.38562358  -0.78715271   1.25881031
H    3.37730170  -1.10674560   0.35657808
H    3.31289317   0.16378832   1.17724264
O   -2.87710544   1.02024980  -0.22521353
H   -3.16198038   0.30342360   0.34156535
H   -2.66409230   1.73265667   0.37755815
O    0.94457444  -2.41218522  -2.77500225
H    1.73861361  -2.23618167  -2.27026826
H    0.31886740  -2.74281311  -2.13048092
O    0.49463937  -0.13131320   4.12491173
H    0.82834943   0.13043961   4.98302298
H    1.08843577  -0.82504494   3.83790308
O   -0.50914820  -0.83126704  -4.38214353
H   -0.73796750  -1.30098416  -5.18416561
H    0.06516997  -1.43226164  -3.90759534
O   -1.80106921  -1.54714015   3.51220172
H   -2.01992125  -2.08522693   4.27298964
H   -1.09389919  -0.97813250   3.81613049
O   -0.17125731  -2.29681097   1.40899091
H   -0.82958449  -2.14049550   2.08604531
H    0.64715232  -2.41156470   1.89197032
O   -0.03535858   0.09206239   0.01557205
H    0.05716243   0.70505897   0.74489154
H   -0.03425786  -0.77224540   0.42691459
O   -2.06580246  -0.62232512  -2.11552148
H   -1.84538503  -1.44209802  -1.67323153
H   -1.65277621  -0.69527272  -2.97593987
O    2.02763212   0.96580701  -1.52942191
H    1.69392290   1.25072505  -2.38012263
H    1.25718805   0.63424680  -1.06821088
O   -1.13716529  -2.99590333  -1.04107085
H   -0.82041523  -2.88395367  -0.14476258
H   -1.56949282  -3.84990263  -1.03791463
H   -2.05338674   0.72686844  -1.43552854
