61
Energy:  -1428.34207656
O   -0.47352664   1.18905367  -2.72873849
H   -0.10401158   2.04970609  -2.53133565
H    0.23708585   0.71648176  -3.16225612
O    2.25627087   1.96421675   2.48677293
H    2.90402884   2.45811665   2.98947000
H    2.47331393   2.14526394   1.57225335
O    0.57457921   3.56470319  -1.81250323
H    0.66049647   4.38357469  -2.30066256
H   -0.07431716   3.75595736  -1.13531256
O    2.00545019  -0.80095304   2.67531944
H    2.27433738  -1.06410392   1.79515858
H    2.16731410   0.14203116   2.70382760
O   -1.37718155   3.71257376   0.11690484
H   -1.09048262   3.28010149   0.92127000
H   -1.96665356   4.40570778   0.41409136
O    1.53506398  -0.34536236  -3.80801064
H    1.11880180  -1.19483098  -3.66185761
H    1.66886789  -0.30341867  -4.75488396
O    3.45424755   0.17815441  -1.89155986
H    2.87050617   0.00125352  -2.62924809
H    4.33497010   0.08746506  -2.25533875
O   -3.28813107   0.10235084   1.20057745
H   -3.67601281  -0.77256055   1.18298008
H   -2.91828137   0.18325864   2.07972304
O   -0.49975411   2.15712856   2.18714392
H    0.40187204   2.16267665   2.50850251
H   -0.97109022   1.59759259   2.80439071
O    0.95811641  -3.69611891  -0.82435837
H    1.47310755  -2.95168492  -0.51317674
H    1.47874918  -4.46373292  -0.58783752
O   -2.39703599   1.40105254  -0.95362704
H   -2.83339748   0.96909700  -0.21930089
H   -2.15289878   2.26232482  -0.61474813
O    2.11815570  -1.38610822  -0.02795940
H    1.37711594  -0.78351569   0.03508156
H    2.73540755  -0.94703334  -0.61314763
O   -1.89143272   0.24920975   3.58584063
H   -2.33616524   0.15960235   4.42870203
H   -1.40247055  -0.56741357   3.48447892
O    0.08697540  -2.59678020  -3.18008688
H   -0.27754680  -3.27043942  -3.75414147
H    0.42429366  -3.08069103  -2.42624436
O   -0.38274234  -1.97748375   3.05765894
H    0.48013224  -1.57037194   2.98059227
H   -0.26451553  -2.66906311   3.70879047
O   -1.23923351  -2.65777823   0.51594669
H   -0.93582464  -2.42394053   1.39315524
H   -0.52820907  -3.18246976   0.14801341
O    0.28267539   0.61407190   0.06653926
H   -0.11872502   0.97359271   0.85764883
H    1.03192328   1.18508680  -0.10317058
O   -1.52357281  -0.97240869  -1.65121918
H   -1.53434269  -1.45590052  -0.82517348
H   -1.07170810  -1.55320747  -2.26336533
O    2.44381513   2.19774070  -0.28343545
H    2.93775119   1.63139169  -0.87631641
H    1.98721739   2.80958573  -0.86084000
O   -3.93903942  -2.54690972   1.11102859
H   -3.04331999  -2.78894085   0.87578515
H   -4.45345910  -3.33593404   0.94060305
H   -1.44351754   0.53887123  -1.68326997
