61
Energy:  -1427.05219826
O   -1.06864094   1.68131508  -2.50035863
H   -0.66719970   2.44488753  -2.08558896
H   -0.49057799   1.47564287  -3.23505177
O    2.93134618   1.32964086   1.81918698
H    3.69451531   1.74446737   2.22133581
H    2.82656181   1.78075507   0.98148295
O    0.02566918   3.73391451  -1.06737903
H    0.01179815   4.67404014  -1.24683162
H   -0.44443206   3.64079561  -0.23878652
O    1.50731527  -2.90343020   2.81753665
H    2.02978826  -2.37037338   2.21828357
H    2.15203209  -3.40241441   3.31912096
O   -1.40942465   3.07362318   1.17317024
H   -0.84524268   2.49857051   1.69012767
H   -1.87133853   3.60376846   1.82264187
O    0.65999285   0.83743465  -4.45925831
H    0.49339769   0.91979381  -5.39824439
H    0.49614643  -0.08573237  -4.26651795
O    2.93476144   1.15445668  -2.91670412
H    3.72997478   1.25370761  -3.44017029
H    2.22391110   1.15448375  -3.55773738
O   -4.30715027  -0.05880944   1.16184575
H   -3.87017737  -0.60394905   1.81614640
H   -5.24103554  -0.18134583   1.33235964
O    0.24470171   1.23720411   2.35862886
H    0.08320152   0.48434008   2.92726344
H    1.19835834   1.31223067   2.32483698
O    2.87371567  -1.34340020   1.12191196
H    2.70397825  -1.33208375   0.17994965
H    3.00123263  -0.42352307   1.35385447
O   -2.75135170   1.36153473  -0.51771099
H   -3.37360744   0.87229917   0.02050663
H   -2.34975618   1.98549636   0.08695815
O    1.94790612  -0.97725381  -1.46872151
H    2.42170079  -0.27186329  -1.90937406
H    1.27671421  -0.53005439  -0.95321597
O   -0.29734371  -1.07208317   3.78191973
H   -0.14568045  -1.02168231   4.72568340
H    0.32693663  -1.72876971   3.47326345
O    0.11158443  -1.61391431  -3.36677002
H    0.17844558  -2.51831610  -3.67306861
H    0.79376456  -1.53532929  -2.69992182
O   -2.78661811  -1.73289919   2.76498041
H   -1.96211705  -1.47918079   3.17977774
H   -3.09854452  -2.47390274   3.28444889
O    0.02853995  -4.10460617   0.82325034
H    0.30928927  -5.01169440   0.70240911
H    0.58234836  -3.77418689   1.53060541
O   -0.09974133   0.06524329  -0.06608687
H   -0.58721422  -0.72903169   0.15238349
H    0.06915416   0.48307643   0.77837842
O   -2.12726993  -0.67904092  -2.04981573
H   -2.20490582  -1.28230189  -1.31070768
H   -1.43691078  -1.05567475  -2.59551076
O    2.44823765   2.50520864  -0.55640708
H    2.69489749   2.11981976  -1.39716042
H    1.64614080   2.99339402  -0.74227674
O   -1.70437283  -2.10226686   0.26171503
H   -1.14422237  -2.87146131   0.36565350
H   -2.18194463  -2.03962997   1.08889920
H   -1.95547692   0.76149255  -1.64445996
