61
Energy:  -1422.35546053
O   -1.08160410   1.80286006  -2.07102023
H   -0.51874976   2.49248418  -1.71910346
H   -0.70088784   1.59437748  -2.92414507
O    3.28205485   1.26039157   1.45751792
H    4.11788291   1.64169238   1.72627991
H    3.16566772   1.55071462   0.55286417
O    0.44137754   3.62981634  -0.73031217
H    0.50830690   4.56880376  -0.90367577
H   -0.01828456   3.57259326   0.10734416
O    1.53214760  -3.03840979   2.56497257
H    2.08844421  -2.51509113   1.98799466
H    2.04610556  -3.82569765   2.74457460
O   -1.01070194   3.05696710   1.53539576
H   -0.42191753   2.43410792   1.96155441
H   -1.29073895   3.64244637   2.23897600
O    0.00304078   0.90073069  -4.43391489
H   -0.39642496   0.93575617  -5.30307091
H   -0.09728512  -0.01101136  -4.16024905
O    2.56154245   1.81628709  -3.82457050
H    3.12955326   1.78678617  -4.59445702
H    1.71523588   1.49766158  -4.13837750
O   -3.68397684  -0.64269299   1.11267777
H   -3.22269856  -1.00985345   1.86676490
H   -4.60751998  -0.82816117   1.28268206
O    0.68877044   1.10750194   2.42271211
H    0.64020768   0.41679363   3.08361720
H    1.62119661   1.17919063   2.21856994
O    2.87985891  -1.41780919   0.91212957
H    2.56524120  -1.30924578   0.01465449
H    3.18077152  -0.54592660   1.16806744
O   -2.75311953   1.62023684  -0.05859466
H   -3.12795667   0.92062127   0.47644461
H   -2.22602101   2.13409080   0.55324936
O    1.59482344  -0.61801692  -1.37876085
H    2.03628101   0.22766066  -1.45735157
H    0.87308569  -0.45642468  -0.77113068
O    0.28851380  -1.09756943   4.04984502
H    0.60580485  -1.10252897   4.95291403
H    0.77987272  -1.79697318   3.61899393
O   -0.38598562  -1.44339975  -3.05192312
H   -0.70119715  -2.27801695  -2.70509799
H    0.41081267  -1.26197238  -2.55349716
O   -2.25296403  -1.82685352   3.18984416
H   -1.44579443  -1.49089433   3.57951134
H   -2.67733838  -2.31188884   3.89757222
O   -0.77510838  -2.79512915   1.07721775
H   -1.39003448  -2.63231322   1.79247205
H    0.04215822  -3.03590712   1.51348958
O   -0.42660305  -0.19556081   0.31557424
H   -0.56613809  -1.10040733   0.59488517
H   -0.02065395   0.22900332   1.07134040
O   -2.54806283  -0.34218937  -1.77265519
H   -2.90448892  -1.00774903  -1.18424833
H   -1.86971843  -0.79958143  -2.26951858
O    2.59920865   1.95627258  -1.11173928
H    2.76955976   2.00147279  -2.05257364
H    1.90071069   2.59371712  -0.96342572
O   -1.59314366  -3.35745268  -1.49717661
H   -1.29813976  -3.29441285  -0.58875462
H   -1.83904659  -4.27605119  -1.60644866
H   -2.10542385   1.00262837  -1.25319061
