61
Energy:  -1435.38921738
O   -0.84733666   1.61960008  -2.40596691
H   -0.48630601   2.40151929  -1.98824563
H   -0.10734279   1.23522860  -2.87596637
O    2.26973955   1.85058408   2.67889375
H    2.86179452   2.40747545   3.18443778
H    2.39661978   2.12708361   1.77132487
O    0.11308392   3.76305137  -1.02475628
H    0.16940312   4.67044683  -1.32424497
H   -0.55765870   3.77686602  -0.34200790
O    2.38747512  -0.89208760   2.44235529
H    2.63972663  -0.97516643   1.52273638
H    2.45833581   0.04446185   2.62697854
O   -1.84638749   3.33811753   0.84229277
H   -1.34540961   2.78262744   1.43952286
H   -2.36151467   3.90463652   1.41668990
O    1.20544796   0.31455319  -3.68561794
H    0.93704846  -0.59478310  -3.55408440
H    1.21813753   0.42592256  -4.63623232
O    3.34299812   0.99789703  -2.05185591
H    4.11126239   1.20717863  -2.58308379
H    2.65812980   0.79608456  -2.68939726
O   -2.87270400  -1.00320619   1.20443593
H   -2.21523185  -1.66926119   1.00360523
H   -2.71305548  -0.77700544   2.12072050
O   -0.39915923   1.48248003   2.17330272
H    0.48832586   1.63808347   2.49639658
H   -0.78052540   0.87173464   2.80400214
O    1.36008875  -3.34061225  -1.00957446
H    1.90925487  -2.59376176  -0.77111532
H    1.94229427  -4.09748848  -0.94318958
O   -2.65233465   1.11555219  -0.55872608
H   -2.80683139   0.45518004   0.11675245
H   -2.51044766   1.92768863  -0.07237811
O    2.52555423  -0.98903974  -0.31458739
H    1.67181925  -0.56364927  -0.23451634
H    3.03827323  -0.39655796  -0.86442047
O   -1.63059051  -0.46455835   3.67604442
H   -1.96110050  -0.45936579   4.57435842
H   -0.97854212  -1.16521970   3.66427903
O    0.16400162  -2.20681360  -3.19755749
H    0.58583806  -2.66161258  -2.46855559
H   -0.00539558  -2.89319850  -3.84285757
O    0.32374032  -2.37090409   3.32953115
H    1.10150147  -1.86669271   3.09059533
H    0.64900032  -3.04600169   3.92508216
O   -0.64387155  -2.55355331   0.76020550
H   -0.28878709  -2.65678607   1.64309273
H   -0.03604039  -3.03529849   0.19922894
O    0.00729228  -0.06113940  -0.07258087
H   -0.26835163  -0.92461921   0.23507950
H   -0.06929718   0.50340886   0.69660777
O   -1.97476161  -0.73772745  -2.27663858
H   -2.70426889  -1.28749433  -1.99061874
H   -1.31270647  -1.35761080  -2.58267694
O    2.34898941   2.52149903   0.05917054
H    2.75762742   2.06033298  -0.67334070
H    1.62311252   3.00428721  -0.33611438
O   -4.02467434  -2.07262589  -1.12558739
H   -4.89275683  -2.47167997  -1.18407225
H   -3.94184303  -1.81158379  -0.20840265
H   -1.77112596   0.65837773  -1.69706908
