61
Energy:  -1431.48553717
O   -1.09076474   1.48813933  -2.36642770
H   -0.68427690   2.31044862  -2.09291918
H   -0.52740937   1.16403749  -3.06915138
O    2.52327074   1.74372273   2.12560068
H    3.19727705   2.28600247   2.53533233
H    2.52248008   2.01473446   1.20756807
O    0.04354045   3.75868054  -1.35463540
H    0.09203785   4.63992056  -1.72516999
H   -0.51443656   3.85330489  -0.58266406
O    2.56439778  -0.99349328   1.85348351
H    2.63652854  -1.07962522   0.90289932
H    2.66192883  -0.05551617   2.01755205
O   -1.63762704   3.57101839   0.78872424
H   -1.15007583   3.00167754   1.38401968
H   -2.11907564   4.16467796   1.36492508
O    0.61526474   0.32473114  -4.18341079
H    0.42378366  -0.56129720  -3.87596875
H    0.44585892   0.29388673  -5.12499570
O    2.90224383   0.80422835  -2.69076667
H    3.68371747   0.93788756  -3.22711172
H    2.18669538   0.73368899  -3.32262620
O   -3.17349715  -0.20060278   1.76415323
H   -3.30364378  -1.07663866   1.40103501
H   -2.57600743  -0.33227641   2.50029176
O   -0.22082504   1.69277917   2.16476052
H    0.72270703   1.75780090   2.31224361
H   -0.52850942   1.08976552   2.84147073
O    1.31552543  -3.82620244  -0.66212427
H    1.87122458  -3.04877904  -0.71728918
H    1.93052606  -4.55625007  -0.59115580
O   -2.78896474   1.36671746  -0.37069094
H   -3.01606134   0.85058944   0.40278876
H   -2.51719684   2.21550778  -0.02150754
O    2.04939311  -1.12313141  -0.91927038
H    1.33015297  -0.62669978  -0.52878211
H    2.49817452  -0.49260542  -1.48253237
O   -1.20458283  -0.33475493   3.75238809
H   -1.48562211  -0.30951112   4.66705280
H   -0.54597802  -1.02872429   3.72275592
O    0.05036097  -1.91598781  -2.69236824
H    0.74452124  -1.69170952  -2.07263231
H    0.05994497  -2.87249051  -2.72761842
O    0.72053364  -2.25721790   3.37176276
H    1.43880557  -1.82790755   2.90699411
H    1.15274671  -2.85394125   3.98278237
O   -0.56152165  -2.70849264   0.98656913
H   -0.16263255  -2.70128033   1.85666529
H    0.04815904  -3.21211220   0.44722820
O   -0.21133224  -0.10666781   0.10895063
H   -0.41594686  -0.94766047   0.51772446
H   -0.20233026   0.51714718   0.83490219
O   -2.31027099  -0.77403504  -1.81721502
H   -2.73105236  -1.37562622  -1.20299768
H   -1.54870229  -1.25522782  -2.14078644
O    2.28361894   2.38201085  -0.49190902
H    2.58158505   1.92424415  -1.27797371
H    1.55791936   2.92869493  -0.79312073
O   -3.14957732  -2.47506845   0.18430175
H   -2.28572729  -2.74101661   0.49936770
H   -3.68238794  -3.26780067   0.24691414
H   -2.04112081   0.66207590  -1.44688223
