21
Energy:   -117.30571302
O    0.66679505  -1.75118912  -0.52341960
H    1.31590834  -1.54985924  -1.19747455
H   -0.15590465  -1.40831788  -0.87247026
O    0.89538337  -0.47181808   1.86055419
H    1.70399382  -0.80658410   2.24825602
H    0.81846183  -0.93649141   1.02725136
O    2.47780346  -0.75323192  -2.35731541
H    2.12282177   0.12013349  -2.19162684
H    2.46118284  -0.84223215  -3.31022389
C   -3.21487432  -0.40998708   1.49820104
H   -2.50868858  -0.23137478   2.28197367
H   -3.68061790  -1.36162056   1.64778624
H   -3.96039980   0.35747147   1.50811181
C   -2.48793062  -0.40198105   0.14059699
N   -1.94668800  -0.39602019  -0.87020093
C    0.00701092   2.43749226   0.51946036
H   -0.99813329   2.07113720   0.53867666
H   -0.00122705   3.50533517   0.58686024
H    0.55029673   2.03204395   1.34731983
C    0.68359949   2.01141588  -0.79670331
N    1.18735044   1.69418264  -1.77664700
