21
Energy:   -120.04358085
O   -0.84355140  -2.19514012  -0.84691119
H   -0.97844852  -1.36523752  -1.30440030
H   -0.82407758  -2.85228704  -1.54261985
O   -1.15863241   0.13651872  -2.17554404
H   -1.85545022   0.61039954  -1.72154651
H   -0.36982818   0.65276726  -2.00969115
O    0.37957069  -1.78235092   1.59230535
H   -0.26489053  -2.09930655   2.22510920
H   -0.02868887  -1.93050315   0.73930659
C    2.98557003  -0.33199350   0.02281557
H    2.87277314  -0.32932400   1.08685030
H    3.97741716  -0.02139902  -0.23148628
H    2.81407652  -1.31958495  -0.35155351
C    1.96721544   0.63853570  -0.60378399
N    1.20900416   1.36113880  -1.07031584
C   -1.03763296   2.61919034   1.66198918
H   -0.01697290   2.49168939   1.36720667
H   -1.21362633   2.09097238   2.57572395
H   -1.23964794   3.65988826   1.80703017
C   -1.96257267   2.06510737   0.56240809
N   -2.65123233   1.65256741  -0.25628002
