21
Energy:   -121.40309771
O   -2.26500594   0.57898311  -0.26377687
H   -2.75447480   0.59118807  -1.08627497
H   -1.94923118  -0.32125683  -0.18576277
O    1.42325911  -2.14300730  -0.35535212
H    1.77502682  -1.47899638   0.23759039
H    1.45163668  -1.73232544  -1.21950892
O   -1.32098252  -2.03439392  -0.01951707
H   -0.37380589  -2.12694986  -0.12209223
H   -1.61863536  -2.90196055   0.25427623
C   -0.39563585   0.84377388   2.64796825
H   -0.13639971   1.37214157   3.54157016
H   -0.93204140  -0.04630159   2.90278942
H   -1.00977419   1.46605119   2.03111806
C    0.88718329   0.46874788   1.88289927
N    1.84230045   0.18952398   1.31327064
C    1.21066386   2.32491865  -1.62948372
H    1.51513742   2.99126133  -2.40934491
H    1.85666200   2.44531819  -0.78503749
H    0.20400710   2.54739579  -1.34304843
C    1.29152848   0.87239465  -2.13469152
N    1.35173587  -0.20907550  -2.51084169
