21
Energy:   -117.88155157
O    0.29780035   0.85236190  -0.78374169
H    0.93437531   0.39230867  -0.23660808
H    0.47580065   0.54208209  -1.67158975
O    0.71662891  -0.36339111  -3.22585097
H    0.38219400  -1.19922377  -2.90062967
H    0.40087205  -0.31327135  -4.12808014
O    1.90616794  -0.41035428   1.07179622
H    1.39168976  -0.03585088   1.78684256
H    2.81008337  -0.16963458   1.27483014
C   -0.98006815  -2.12738357   0.67418644
H   -0.12961400  -2.40437001   1.26147379
H   -1.82883857  -2.70114996   0.98286103
H   -1.18443997  -1.08608805   0.81142670
C   -0.68834832  -2.40162308  -0.81285499
N   -0.47114964  -2.60580687  -1.92002493
C   -1.47382584   2.69595173   1.54298642
H   -2.50016151   2.51779499   1.78751751
H   -1.33677609   2.59820221   0.48631169
H   -1.20089459   3.68454390   1.84809810
C   -0.58673428   1.67021493   2.27273473
N    0.07374571   0.90650726   2.81606551
