21
Energy:   -124.82965997
O    0.17053105  -1.36201013   2.33035778
H    0.31031963  -2.15512940   2.84770953
H    0.81193295  -1.42118666   1.62230864
O    1.79099045  -1.38279279   0.15808994
H    2.00560457  -0.45024826   0.13499611
H    1.19178485  -1.50944216  -0.57753525
O   -1.75456308  -0.45903929   0.57528023
H   -1.37762967  -0.80712450  -0.23279758
H   -1.18880636  -0.79750123   1.26925047
C   -0.23327446   2.19520378   2.01385437
H   -1.16645635   2.35040651   1.51387054
H    0.05833213   3.09589415   2.51247400
H   -0.33960425   1.40865938   2.73144825
C    0.84315173   1.80754230   0.98301722
N    1.64459995   1.51891070   0.21551210
C   -0.58235409   0.54333273  -3.90785086
H   -1.50510818   1.07463188  -3.80227491
H   -0.59085900  -0.00746150  -4.82515804
H    0.23066902   1.23889637  -3.91700164
C   -0.41218249  -0.42970233  -2.72639227
N   -0.28548199  -1.15417117  -1.84674265
