21
Energy:   -118.95859171
O    1.35503158  -0.54448351  -0.24417492
H    0.73712789  -0.83286728  -0.91593505
H    0.80809795  -0.12897660   0.42249551
O   -0.63541421  -1.34636691  -1.95245527
H   -0.68907103  -1.92566664  -2.71256356
H   -1.18116180  -1.76922415  -1.28944458
O    2.10025614   1.91264235  -1.16085133
H    1.89509173   1.02218077  -0.87586434
H    2.98065175   1.84926034  -1.53114598
C   -1.06202174   3.07652187  -0.15922797
H   -1.50084788   3.84402316   0.44349382
H   -1.74489949   2.79749770  -0.93429092
H   -0.15582067   3.44068782  -0.59635711
C   -0.75185820   1.84935104   0.71795521
N   -0.52092736   0.93566658   1.37105796
C   -0.44948594  -2.26211054   2.58005589
H   -0.59641726  -3.11164771   3.21377347
H   -0.79554578  -1.38098301   3.07881029
H    0.59188850  -2.15972013   2.35655072
C   -1.23874935  -2.45494306   1.27182086
N   -1.82639183  -2.59851563   0.29778042
