21
Energy:   -118.39397941
O   -0.20527288   0.66512242   2.45852831
H    0.30562071   1.24696461   1.89578569
H   -0.42417100   1.20030262   3.22135045
O   -1.67107604  -0.91799848   0.76964540
H   -1.17729836  -0.34529691   1.35652559
H   -2.16697062  -1.49091467   1.35452785
O    1.15491433   2.30041596   0.75091685
H    1.71042347   3.05814821   0.56793246
H    0.78563168   2.06260188  -0.09955751
C    1.76137815  -1.39550644   0.25671494
H    2.69334734  -1.79603922   0.59716623
H    0.99338558  -1.62802063   0.96454519
H    1.84478346  -0.33344004   0.15692707
C    1.40533243  -2.01297479  -1.10840933
N    1.14024021  -2.47270804  -2.12480640
C   -1.57018664  -0.43242276  -2.70446894
H   -1.02217579  -1.06831036  -3.36796819
H   -2.36440669   0.04316524  -3.24105971
H   -1.97864617  -1.01678230  -1.90660690
C   -0.62795138   0.63933164  -2.12556029
N    0.07358560   1.43730151  -1.69453649
