21
Energy:   -120.56520715
O   -0.41662930  -1.80985426  -1.40057831
H    0.40069296  -2.27573396  -1.57713503
H   -0.52303972  -1.86339210  -0.45081920
O    0.72156290   0.23902931   2.30747054
H    1.58536706   0.21396968   1.89583206
H    0.24687012   0.91804976   1.82806481
O   -0.65546665  -1.91228861   1.41541420
H   -1.04634398  -2.35088194   2.17111431
H   -0.14500086  -1.19526175   1.79161760
C    2.23860729   1.73344662  -1.55416398
H    3.03642980   1.78251081  -2.26548116
H    1.95337872   2.72457629  -1.26919779
H    1.40038201   1.23314947  -1.99231947
C    2.70727384   0.95639755  -0.30991866
N    3.05621738   0.37784920   0.61647854
C   -2.79981351   0.53546716  -0.84273394
H   -3.68236815   1.12908888  -0.72606884
H   -2.95228008  -0.42275114  -0.39165665
H   -2.58950565   0.40995216  -1.88432680
C   -1.61284068   1.24086270  -0.16074229
N   -0.72908545   1.76606174   0.34703150
