21
Energy:   -120.19200912
O    2.35547697   0.18262957   2.01423020
H    1.86150433   0.90488569   1.62619802
H    3.27263243   0.40871493   1.85949456
O    1.21052762   0.22020689  -1.61570822
H    1.08940323   0.96006249  -1.02058267
H    1.34361673  -0.53222574  -1.03919780
O    1.30335179  -1.70773787   0.33714898
H    0.36790288  -1.69711590   0.53976769
H    1.70316424  -1.17053542   1.02110467
C   -2.03865704   1.90480439   1.40918966
H   -2.66016249   2.05131589   0.55060621
H   -2.22517805   2.68141109   2.12122269
H   -2.25874942   0.95545691   1.85100161
C   -0.55893182   1.94255501   0.98423300
N    0.54279087   1.97066207   0.66783345
C   -1.71274565  -1.34851274  -2.56468794
H   -2.68407087  -1.05017783  -2.89998450
H   -1.51597509  -2.34958432  -2.88723426
H   -0.97591481  -0.69017136  -2.97525588
C   -1.65845146  -1.28461660  -1.02697229
N   -1.61802697  -1.23704302   0.11792691
