21
Energy:   -124.54899092
O    0.69148513   0.08730640   2.08007382
H    0.23595993   0.83209062   1.68761351
H    0.14336104  -0.66818414   1.86788079
O    2.69060926  -0.21185915   0.26162814
H    3.27387406  -0.88102121   0.61975683
H    2.06755712  -0.03450336   0.96631446
O    0.67739553  -1.13844539  -1.37667572
H    0.07410704  -1.45766499  -0.70557684
H    1.44240853  -0.83588767  -0.88734374
C   -3.76461939  -1.04543396   0.52103654
H   -4.17342020  -1.59556650  -0.30063023
H   -3.83558088   0.00290209   0.31891017
H   -4.31191307  -1.27484993   1.41139435
C   -2.28642391  -1.43228781   0.71308401
N   -1.18584018  -1.72031808   0.85607207
C    1.03360021   2.16388862  -1.95342663
H    2.05548380   2.12260900  -1.63886330
H    0.84681193   3.09991801  -2.43701553
H    0.83820550   1.36410167  -2.63684512
C    0.11290786   2.02721290  -0.72654221
N   -0.57258943   1.92545162   0.18692900
