21
Energy:   -117.41602282
O    1.07877467  -2.59510145  -0.84684088
H    1.22736863  -3.03537489  -1.68368673
H    0.45143552  -1.90095613  -1.04892924
O    2.38981718  -2.24724448   1.55199435
H    1.94898329  -2.34260124   0.70771689
H    2.22532933  -3.07510124   2.00346834
O   -0.64319164  -0.55929249  -1.36607789
H   -1.58502068  -0.51817765  -1.53190758
H   -0.47166573   0.17262876  -0.77353930
C   -3.35808970   2.95708378  -0.79078064
H   -3.99998558   3.54100584  -1.41680371
H   -2.36188187   3.34424812  -0.84150363
H   -3.70744350   3.00265383   0.21955316
C   -3.36522573   1.49385585  -1.27089846
N   -3.37053883   0.40441615  -1.62836800
C    2.26966925   1.01850049   1.84576422
H    2.96111856   0.53040545   1.19111831
H    2.05144151   0.37875066   2.67521940
H    2.69970469   1.93099049   2.20259836
C    0.96965202   1.32845107   1.08059374
N    0.00173011   1.55922336   0.51088953
