21
Energy:   -121.05870642
O   -0.67564862   1.03718521  -1.84131227
H   -0.62912285   1.73608126  -2.49370135
H   -0.42855392   1.45983924  -1.01879198
O    2.23918396  -0.05758120   0.37598694
H    1.84667185   0.81406088   0.42503973
H    1.60329776  -0.63151307   0.80316700
O    1.35639321  -0.80393741  -2.13756918
H    1.84977350  -0.60119603  -1.34277130
H    0.61943984  -0.19322373  -2.12490486
C   -0.81537016   1.54113319   3.14401142
H   -1.79754626   1.95650691   3.23173236
H   -0.17776024   1.97316583   3.88677685
H   -0.86212344   0.48170359   3.28656715
C   -0.25216166   1.84628872   1.74355567
N    0.16717266   2.07349089   0.70085271
C   -1.37422336  -2.36361149  -0.97159916
H   -1.91436493  -1.56947157  -1.44328662
H   -2.05160321  -3.14947432  -0.70992142
H   -0.63363705  -2.74075174  -1.64553999
C   -0.68779210  -1.83272331   0.30063111
N   -0.17671282  -1.43745294   1.24786438
