21
Energy:   -124.30747527
O    1.98012696  -0.84786485  -0.33645651
H    1.71764377  -0.60019136   0.55010554
H    1.74417925  -0.09338404  -0.87619647
O   -0.01054747  -2.53731044  -1.05721272
H    0.31406897  -3.43407545  -0.97555170
H    0.74499158  -1.98850871  -0.84695275
O   -1.62895052  -1.06740987   0.67419645
H   -0.91947273  -0.66021257   1.17125125
H   -1.18691070  -1.66227022   0.06841281
C   -1.88013338   0.31023984  -2.37039009
H   -1.78589578  -0.72010674  -2.64316359
H   -2.26455645   0.86523851  -3.20050724
H   -2.54982996   0.39972832  -1.54069292
C   -0.49861832   0.86558997  -1.97719503
N    0.52998244   1.27907339  -1.68444344
C    0.90188704   2.88388972   2.76244935
H    0.32380962   3.50111822   2.10689182
H    1.93007421   3.17590478   2.71287684
H    0.54665701   2.99800446   3.76528959
C    0.76533091   1.41101616   2.33396844
N    0.66365867   0.31439484   2.01494493
