21
Energy:   -127.91607781
O    1.89025469  -0.38346192   1.35143512
H    1.10168047  -0.92418042   1.39622408
H    1.57056001   0.48837328   1.11920561
O   -0.25278301  -1.96628111   0.62604614
H    0.32456528  -2.02220112  -0.13538262
H   -1.03896323  -1.52866465   0.29948168
O    1.91468372  -1.60081789  -1.08048072
H    2.61600860  -2.24888952  -1.14665040
H    2.10065799  -1.12792507  -0.26929776
C    0.07293022   1.02333204  -2.47970594
H    0.79791484   0.29742008  -2.78359622
H    0.09791456   1.85543045  -3.15193144
H   -0.90167067   0.58193560  -2.49458486
C    0.39623285   1.50578472  -1.05341185
N    0.63694636   1.86499267   0.00852892
C   -2.48561196   1.71079868   1.87149001
H   -3.36169261   2.31289549   1.74957889
H   -1.61527450   2.32940655   1.80267063
H   -2.51024180   1.23512006   2.82962482
C   -2.44189744   0.63851619   0.76699949
N   -2.40934998  -0.15984686  -0.05534390
