21
Energy:   -120.35355376
O   -0.28627518   1.29326173   0.91865054
H    0.10077993   0.62330496   0.35510984
H    0.09430517   1.13009628   1.78164966
O   -2.20727019  -0.65788694   0.64632514
H   -3.13186546  -0.41986750   0.71489749
H   -1.73572951   0.14807379   0.85682109
O    0.28325703  -0.93550772  -0.58915034
H   -0.63515269  -1.09725113  -0.37329273
H    0.27959795  -0.74686968  -1.52757143
C    0.57175776  -2.74963627   2.30324530
H    1.23684672  -2.88052745   1.47534171
H   -0.43140868  -2.95095623   1.99015355
H    0.84252824  -3.42426963   3.08839005
C    0.66862971  -1.30053027   2.81540506
N    0.74075527  -0.22160498   3.19673129
C    1.12058125   2.91724171  -3.07922309
H    0.53988631   3.47595070  -3.78316757
H    2.15941749   3.01563771  -3.31594358
H    0.94249459   3.29182399  -2.09288017
C    0.71751119   1.43238061  -3.14496531
N    0.41740722   0.32683402  -3.19391338
