21
Energy:   -119.60303314
O    0.45204952  -2.26176014  -1.97777909
H    0.65258182  -2.12306407  -1.05215387
H    0.32771785  -3.20751336  -2.05730478
O    2.25452356  -0.16439742  -1.91476530
H    1.64021188  -0.84838623  -2.18124664
H    3.02100711  -0.29990294  -2.47187666
O    1.39449017  -1.42480595   0.42969022
H    1.88297780  -0.82943814  -0.13877161
H    0.99058603  -0.85461508   1.08388871
C   -1.02081163   0.91725678  -1.30533319
H   -1.02006004   1.40500715  -2.25769824
H   -1.27097538  -0.11515614  -1.43355469
H   -0.04968824   0.99668048  -0.86316768
C   -2.05953816   1.58685412  -0.38648249
N   -2.83291727   2.08539977   0.29764362
C   -1.77899458   1.78084907   3.54692055
H   -2.65051440   1.17604265   3.68678685
H   -2.04005095   2.66088334   2.99711299
H   -1.38221938   2.06061145   4.50044115
C   -0.71998934   0.98207661   2.76457124
N    0.06848821   0.38735420   2.18207662
