21
Energy:   -119.28172794
O   -0.93452831   1.20778881   1.26920798
H   -1.33294983   1.66191901   2.01167541
H   -1.20631877   0.29574023   1.37181972
O   -1.66877746  -1.38893894   1.53397374
H   -0.80613266  -1.80361868   1.54476817
H   -2.02299402  -1.59436638   0.66877895
O    1.35722416   1.48288126  -0.25165015
H    1.35788742   2.40289057  -0.51587408
H    0.56097870   1.38365477   0.27024938
C    3.32103775  -0.96133951   0.42834503
H    3.21249841  -0.71724492  -0.60777138
H    4.15661408  -1.61768662   0.55451855
H    3.48300443  -0.06558239   0.99073729
C    2.04153471  -1.65722596   0.92855902
N    1.08888655  -2.17534506   1.30099107
C   -1.74081232   0.81662931  -2.60821850
H   -2.61475232   1.41098989  -2.77514530
H   -1.30473922   0.55159936  -3.54869629
H   -1.03364775   1.37611679  -2.03220537
C   -2.12840033  -0.46260660  -1.84341068
N   -2.41697723  -1.41505588  -1.27397649
