21
Energy:   -121.23237537
O    0.71240963  -2.38232837   0.35716650
H    1.54065485  -1.92151302   0.49092346
H    0.09466213  -1.93937434   0.93889805
O    0.80394004  -0.91459195  -1.97675582
H    0.61331431  -1.58248685  -1.31811321
H    1.52767964  -0.41047822  -1.60486579
O   -0.99499729  -0.89402952   1.90604744
H   -1.28358128  -0.20896222   1.30302677
H   -1.80590981  -1.26099430   2.25816897
C    1.16622892   1.82034446   2.00248640
H    0.43636851   2.39979308   1.47670770
H    1.88539179   2.47391645   2.45031172
H    0.68342649   1.24532959   2.76482413
C    1.87650124   0.87330638   1.01748280
N    2.40533127   0.16819348   0.28410284
C   -1.68692183   1.09865983  -2.66413762
H   -2.60976278   1.50238924  -3.02506327
H   -1.57222265   0.09648669  -3.02105803
H   -0.87346355   1.69797885  -3.01627599
C   -1.69457366   1.09740009  -1.12415714
N   -1.70027079   1.09646215   0.02242832
