21
Energy:   -119.23129261
O    0.88100207  -2.23177696  -0.32693818
H    1.53309966  -1.53628461  -0.24155102
H    1.31596644  -2.90577408  -0.84920796
O   -0.45259602   1.10047649   1.43682326
H   -0.81811095   0.22410935   1.31594598
H   -0.63758341   1.55324363   0.61401500
O   -1.40029436  -1.42790809   0.98281365
H   -0.62857694  -1.77541573   0.53568671
H   -1.44125222  -1.91598028   1.80521248
C    2.61235019   2.19031858   1.14171614
H    2.24155580   2.05051233   2.13563058
H    1.93823260   2.81534828   0.59417394
H    3.57565130   2.65431858   1.18238624
C    2.72980902   0.82414398   0.44073798
N    2.81726246  -0.19303511  -0.08117213
C   -2.50346617  -0.19682992  -2.30599226
H   -3.55583090  -0.04239132  -2.18947030
H   -2.21355078  -1.08539743  -1.78513149
H   -2.27114703  -0.30075043  -3.34528406
C   -1.74047362   1.00933690  -1.72754264
N   -1.17239099   1.90738293  -1.29686060
