21
Energy:   -121.57382257
O    0.57849312   0.84422275   1.71512192
H    1.23268541   1.46705185   2.03189978
H    1.02806010   0.35287817   1.02758873
O    1.75915120  -0.59017309  -0.26708532
H    2.00621312  -0.12369752  -1.06557941
H    1.03082657  -1.15160463  -0.53273491
O    2.14952456   0.84258646  -2.56766647
H    1.28812383   1.25927995  -2.54343476
H    2.35944914   0.77945032  -3.49942681
C   -2.28256917   1.19205188  -0.35141305
H   -1.80961687   1.24787260   0.60676249
H   -2.65629520   0.20167179  -0.50753874
H   -3.09318601   1.88939969  -0.39021335
C   -1.25869672   1.53345980  -1.44992378
N   -0.49637713   1.78765351  -2.26781495
C   -1.11242453  -2.13764634   2.43567225
H   -0.44246310  -2.86928545   2.83661625
H   -2.12032881  -2.41173973   2.66783786
H   -0.89491894  -1.18181137   2.86458939
C   -0.93908459  -2.06583109   0.90714491
N   -0.81002512  -2.01236137  -0.23091317
