21
Energy:   -123.91114770
O    1.89675309  -0.47726040  -0.89475149
H    1.77156597   0.45585323  -0.72195394
H    2.07496624  -0.85872222  -0.03512436
O   -1.22749198   0.25600131   0.91989517
H   -0.65172146   0.99877404   0.73821184
H   -1.16769384  -0.29116962   0.13678599
O   -0.67827641  -1.12484769  -1.41070851
H   -0.73094401  -2.05540949  -1.62868261
H    0.25767014  -0.95651578  -1.30162010
C   -1.02699134   2.26306891  -2.76498085
H   -1.42225310   1.29149108  -2.97641605
H   -0.45803664   2.60686567  -3.60342789
H   -1.83199681   2.94255485  -2.57745980
C   -0.11837159   2.18865242  -1.52382319
N    0.55813712   2.13324595  -0.59972490
C    0.05004948  -1.30657922   3.63805757
H    0.08793074  -2.17391382   4.26351412
H   -0.90606783  -1.25252420   3.16075596
H    0.20146963  -0.43056180   4.23351076
C    1.15369313  -1.39687500   2.56781584
N    1.97540600  -1.46410430   1.77097222
