21
Energy:   -128.14469910
O    1.19025460   0.63795167   2.23634259
H    0.70757349   1.27943951   1.71505174
H    1.26663259   1.04035948   3.10148201
O   -0.29714459   2.22167874   0.62049666
H   -1.13106140   1.75218847   0.60066022
H    0.12447338   1.99712773  -0.20898931
O   -0.29286931  -1.51147339   1.35811130
H    0.27311486  -0.84622613   1.74969761
H   -1.09408877  -1.04040458   1.12925892
C    2.43121669  -1.17539416  -0.55837442
H    2.85494687  -0.84187779   0.36581157
H    3.21625561  -1.41241030  -1.24571447
H    1.83508009  -2.04658550  -0.38360061
C    1.54948231  -0.06041606  -1.15080021
N    0.89299098   0.76973581  -1.59188815
C   -2.33007134  -0.52746257  -2.49083853
H   -3.24551965  -0.22094914  -2.95225384
H   -2.23490098  -1.59103418  -2.55908159
H   -1.50580499  -0.06282731  -2.99043652
C   -2.33581166  -0.10659139  -1.00947615
N   -2.34008560   0.20676633   0.09346548
