21
Energy:   -119.93505955
O   -0.56103343  -0.31253105   1.45757498
H   -0.79650204   0.42402094   0.89341406
H   -0.82145403  -1.08817368   0.96079387
O   -0.97233249   1.81612168  -0.18443599
H   -0.25254820   1.67336518  -0.79906026
H   -0.75924770   2.64377964   0.24661970
O    1.03820086   0.75379600   3.42160552
H    0.49854596   0.34457066   2.74518919
H    0.47522365   0.77862196   4.19534461
C    2.54444979  -1.12924275  -0.31222772
H    2.10512949  -1.24304291   0.65676526
H    3.57101797  -0.84627323  -0.20741779
H    2.48240443  -2.05620458  -0.84306782
C    1.78854943  -0.03858611  -1.09368964
N    1.22574725   0.77345734  -1.67552356
C   -1.99506800  -0.48012379  -2.72119173
H   -1.14829501  -0.08910683  -3.24557844
H   -2.56004389   0.32705040  -2.30385354
H   -2.61062779  -1.03298552  -3.39966732
C   -1.51469835  -1.40891737  -1.59062220
N   -1.15704131  -2.10044642  -0.74886179
