21
Energy:   -118.13352513
O    1.28644871  -1.47159823   1.18761086
H    0.37638223  -1.53103213   0.89695908
H    1.79192541  -1.86324418   0.47533380
O    0.82067850   0.90094339   2.52612299
H    0.78634922   0.72142459   3.46571139
H    1.10581267   0.07545353   2.13433627
O   -1.39106496   1.33517838   0.98484408
H   -1.58652495   0.42520575   0.76128860
H   -0.65543317   1.27976717   1.59476811
C    1.67173074   1.81203301  -0.74876789
H    2.12638955   1.45349523   0.15102998
H    0.78204672   2.35507532  -0.50696945
H    2.35489151   2.45668814  -1.26122297
C    1.31460037   0.61866078  -1.65426258
N    1.04870058  -0.26985909  -2.32844454
C   -2.27634692  -1.47959716  -2.55648827
H   -1.46627786  -1.71570670  -3.21447048
H   -2.69106769  -0.53116910  -2.82739413
H   -3.03087748  -2.23423471  -2.63462200
C   -1.75939202  -1.41868928  -1.10712708
N   -1.37449560  -1.37334060  -0.02801179
