21
Energy:   -119.37573750
O    2.05689282  -0.80665124   0.47508328
H    2.68329994  -1.03948028   1.16038366
H    1.55637344  -0.07918075   0.84454082
O    1.95746313   0.55781016  -2.11640824
H    1.28712657  -0.11258654  -2.24850296
H    2.43061334   0.27328846  -1.33448232
O    0.21988987  -1.52560959  -1.54231774
H    0.84784443  -1.48042119  -0.82130252
H   -0.63661177  -1.47214387  -1.11831514
C   -0.78267269   2.24870730  -1.09049612
H   -1.35513427   3.12933373  -0.88632704
H   -1.42285796   1.49310888  -1.49562936
H   -0.01244974   2.47969373  -1.79640048
C   -0.14591187   1.73631172   0.21471897
N    0.32818551   1.35480992   1.18651093
C   -2.22297031  -0.75668475   2.75279230
H   -1.98198171  -1.67868838   3.23934546
H   -3.20984551  -0.45275818   3.03315825
H   -1.52111921  -0.00432783   3.04649824
C   -2.15959201  -0.94994772   1.22628235
N   -2.11240398  -1.09384078   0.08972631
