21
Energy:   -125.02526187
O    1.96977474  -0.76741803   0.69746506
H    1.41542455  -1.32270189   0.14920641
H    1.94821114   0.08912801   0.27073828
O   -1.09796073   1.64738627   0.95040766
H   -0.34217504   1.79844368   0.38277970
H   -0.77460771   1.05302748   1.62746917
O    0.10130093  -0.27362852   2.62287973
H    0.49919976  -0.29776555   3.49312440
H    0.82035854  -0.47647614   2.02451459
C    1.05962686   1.01451638  -3.59774240
H    0.73747306   0.00732297  -3.76107808
H    2.04045579   1.14570929  -4.00475851
H    0.38114933   1.68830815  -4.07792152
C    1.08812754   1.30554632  -2.08576049
N    1.10934760   1.52223134  -0.96002124
C   -2.45772768  -1.34714953   0.62351582
H   -3.18093556  -2.11590200   0.44775975
H   -2.86071896  -0.40276866   0.32244791
H   -2.21629218  -1.31606205   1.66545707
C   -1.18432713  -1.64466643  -0.18983204
N   -0.23622254  -1.86618128  -0.79540648
