21
Energy:   -126.71276351
O   -0.38828986   1.97850000   0.34190877
H   -0.04414942   2.78557089  -0.04076052
H   -0.71775090   1.47984459  -0.40577436
O    0.59494963  -1.40158017  -2.07507980
H    0.41379779  -1.88542407  -1.26928147
H    1.41005439  -0.93296602  -1.89553355
O   -1.27098297   0.52921033  -1.81155838
H   -0.61930587  -0.15765421  -1.95214970
H   -1.68672474   0.64411376  -2.66606866
C    2.27351465   0.22903387   1.79630913
H    3.16061961   0.56963462   2.28817912
H    2.01425955  -0.74290463   2.16103017
H    1.47211265   0.90978174   1.99439055
C    2.52330045   0.15792008   0.27836648
N    2.70927732   0.10497263  -0.85181082
C   -2.22005374  -0.59482015   1.46166113
H   -1.85133323   0.24229779   2.01679979
H   -2.86211290  -1.18133448   2.08508720
H   -2.76930662  -0.24558798   0.61239248
C   -1.03613472  -1.45813682   0.98772012
N   -0.15465320  -2.10091533   0.63484949
