21
Energy:   -119.57508716
O   -1.62596090   1.66971285   0.86262360
H   -1.19740811   1.05421018   1.45737635
H   -2.06745689   2.29299674   1.43953809
O   -0.13840963  -1.84026151  -0.82501003
H    0.73071522  -1.45475356  -0.71438693
H   -0.68100313  -1.12045742  -1.14704453
O   -1.50621478   0.44658375  -1.58034682
H   -2.38265988   0.51529746  -1.95896834
H   -1.56672688   0.91601853  -0.74836057
C    1.91700418   2.05767013  -1.88859193
H    0.86821718   2.26514346  -1.93219033
H    2.30359616   1.96374327  -2.88188115
H    2.41821268   2.85769763  -1.38496000
C    2.14870484   0.74280418  -1.12110099
N    2.32121652  -0.23617328  -0.54966909
C    0.48568181  -2.58781600   2.30121671
H   -0.16009177  -3.09595575   1.61589148
H    0.52247072  -3.12813393   3.22403966
H    1.46941076  -2.52551095   1.88493012
C   -0.05367076  -1.16849089   2.55853948
N   -0.45524327  -0.11173882   2.75012798
