21
Energy:   -120.62086591
O   -0.44813826  -1.15949816  -0.56578077
H   -0.85976162  -0.95168615  -1.40459673
H   -0.36103410  -0.31417495  -0.12524317
O    0.22411045   1.22777620   0.57171268
H    1.09244813   0.98073055   0.25360896
H    0.22073440   0.96179008   1.49120811
O    2.13040647  -0.19187860  -0.91929556
H    2.85368011  -0.81880331  -0.92781063
H    1.34213548  -0.73488881  -0.91851546
C    0.35121355   2.51502478  -2.70633915
H    0.00735888   3.03350614  -1.83579839
H    0.23746719   3.14413881  -3.56434637
H    1.38333773   2.26015818  -2.58525331
C   -0.47567179   1.23016036  -2.89865153
N   -1.09132551   0.27352039  -3.04183684
C   -1.74423448  -2.29105583   3.41171491
H   -1.89945326  -2.45488512   4.45764381
H   -1.28949999  -3.15739723   2.97862342
H   -2.68481449  -2.10651254   2.93616038
C   -0.82157945  -1.07398237   3.21412980
N   -0.13462084  -0.16781585   3.06701872
