21
Energy:   -120.91586819
O   -0.37688515  -0.34756641   2.32798265
H   -1.20769156  -0.78813646   2.14940331
H   -0.24319205  -0.45975748   3.26913682
O    0.82521359  -1.33929998   0.00585314
H    0.56344892  -1.10824904   0.89710315
H    1.70552633  -0.97525846  -0.08771558
O   -0.55083891   1.00223557  -0.31016482
H   -0.07415504   0.18124275  -0.43253775
H   -0.69112264   1.05971214   0.63495357
C    2.32431702   2.84442556  -1.10674578
H    2.77851464   3.08192606  -2.04599986
H    2.62785467   3.56105539  -0.37243952
H    1.25951190   2.86805057  -1.20936643
C    2.76626886   1.43718631  -0.66407632
N    3.09532210   0.38943272  -0.33448879
C   -2.40014274  -1.80215396  -1.36390214
H   -3.20964574  -2.36775520  -1.77584910
H   -1.47355086  -2.28382379  -1.59697029
H   -2.40478400  -0.81687256  -1.78115278
C   -2.56198352  -1.71293503   0.16496919
N   -2.68248134  -1.64650748   1.30328339
