21
Energy:   -120.63429794
O    2.48145750   0.74723061   0.55177774
H    1.66175693   0.81135334   1.04189110
H    3.16475582   0.78362576   1.22111372
O    0.43482368  -0.89691163  -0.54599795
H    1.35890797  -0.64948414  -0.51313913
H    0.03393743  -0.42505370   0.18398298
O   -0.09312729   0.77216190   1.64618612
H   -0.53097113   1.48901857   1.18722954
H   -0.80629647   0.26124529   2.02905134
C    0.77305765   2.02961179  -2.39638109
H    0.66757511   2.75471532  -3.17612367
H    0.53865223   1.05811004  -2.77866051
H    1.78046692   2.03751457  -2.03587701
C   -0.18767576   2.37286753  -1.24279243
N   -0.90298546   2.62843704  -0.38389323
C   -2.19496008  -3.13581603   0.19139777
H   -2.09803313  -4.08736130   0.67105071
H   -1.38660159  -2.99898874  -0.49615873
H   -3.12400757  -3.09621239  -0.33794277
C   -2.16076043  -2.02022881   1.25248002
N   -2.13529723  -1.18962342   2.04250399
