21
Energy:   -119.16176153
O    1.73413603  -1.79891983  -1.21392189
H    1.73313769  -1.04927654  -1.80912420
H    1.68174412  -1.41165044  -0.34013167
O    1.40188883  -0.06262705   0.91493569
H    1.24772852   0.41552489   0.10017365
H    2.23259016   0.28242949   1.24220184
O    0.90617799   1.07009825  -1.52026582
H    0.80737950   1.98997700  -1.27471790
H    0.00999131   0.73768346  -1.57107607
C   -1.54299935   1.95772613   1.83428212
H   -2.42933832   1.65097163   1.31930146
H   -1.80805848   2.59484955   2.65203301
H   -1.02982872   1.09542810   2.20576173
C   -0.62442727   2.72330780   0.86386467
N    0.05949140   3.29331815   0.14134476
C   -1.33532811  -2.66404766  -0.11512743
H   -0.67524491  -3.19232273  -0.77095957
H   -2.28639750  -3.15393973  -0.09584357
H   -0.92155010  -2.64949785   0.87152101
C   -1.51205688  -1.21958636  -0.61901085
N   -1.64363948  -0.14411927  -0.99417496
