21
Energy:   -118.91771032
O    1.11029881  -0.11062810  -2.75473970
H    1.62960217  -0.52573950  -2.06609001
H    0.23421230  -0.48221673  -2.65165646
O    0.89421916  -1.32518954  -0.00644958
H    0.76083721  -0.40728508   0.22996638
H    0.93988191  -1.78475844   0.83196749
O   -1.17708710  -1.33088887  -1.79793634
H   -1.43315311  -2.22233360  -2.03455491
H   -0.52668585  -1.44400295  -1.10481639
C   -0.99353138   2.31912129  -1.66905198
H   -1.40512739   3.28935602  -1.48429952
H   -1.77004747   1.65803191  -1.99290794
H   -0.24401177   2.38854981  -2.42951179
C   -0.36228492   1.77425694  -0.37435095
N    0.10770676   1.36858066   0.58961282
C    0.11836887   0.41110243   4.07720899
H    0.25987171   1.23471558   3.40897363
H    0.75816484   0.52725353   4.92695550
H   -0.90154843   0.38457190   4.39964337
C    0.46180172  -0.90327381   3.35190287
N    0.71750309  -1.88188667   2.81187949
