21
Energy:   -120.77149441
O    0.16552512  -0.34893731  -2.36743917
H   -0.26868499   0.03472577  -3.12934210
H   -0.47716780  -0.27421210  -1.66203588
O   -1.11781319   0.04327111   0.02982624
H   -0.18153260   0.13249398   0.20773009
H   -1.48849193   0.89456742   0.26247129
O    1.62830956   0.11445988   0.02725710
H    1.46474662   0.05737099  -0.91413542
H    1.80477682  -0.78734018   0.29530152
C    0.46956352   3.45539097   2.50595761
H    1.15021783   2.63234853   2.57084993
H    0.09906410   3.68963539   3.48205126
H    0.97700841   4.30698060   2.10322460
C   -0.70717110   3.07716683   1.58734880
N   -1.58330351   2.79556177   0.90340278
C   -0.87200324  -3.40870614  -0.83756431
H   -0.78036329  -3.19072624  -1.88110974
H   -1.67963763  -2.84141281  -0.42427985
H   -1.06606307  -4.45282879  -0.70699717
C    0.43779696  -3.03615584  -0.11837747
N    1.41300274  -2.75877521   0.41708982
