21
Energy:   -118.72065643
O    0.65656068   2.81360441   1.91485920
H    1.36430305   3.41016025   2.15869052
H    1.01804966   1.93957000   2.06190145
O    1.79868584   0.35539505   2.29404803
H    1.99875825  -0.29246794   2.96967842
H    1.77393167  -0.14697657   1.47965142
O    1.55978041  -1.06242675  -0.01114383
H    1.37360365  -1.98506079  -0.18526012
H    0.89132612  -0.58570056  -0.50321379
C   -1.56239708  -2.93146683  -2.65274417
H   -2.51297404  -3.04675248  -2.17523726
H   -1.50619661  -3.58522991  -3.49792725
H   -1.44673642  -1.91840565  -2.97713397
C   -0.44162641  -3.28266300  -1.65668476
N    0.39283829  -3.54414450  -0.91507324
C   -1.78716302   2.43081737  -0.19932597
H   -2.71573130   2.63665021  -0.68952385
H   -1.12426534   3.26082483  -0.32798592
H   -1.96219932   2.27259642   0.84433466
C   -1.15287337   1.16769932  -0.81072554
N   -0.68061590   0.22725052  -1.26594031
