21
Energy:   -119.75493212
O    1.98817295   0.18886996  -0.68980299
H    2.87422568   0.26329134  -1.04420934
H    1.91865296  -0.72292400  -0.40690619
O   -0.45930455   0.85670366  -1.73646341
H   -1.00932730   0.34267490  -1.14529403
H    0.43636791   0.66431762  -1.45899215
O   -0.81267581   3.24025084  -0.46595505
H   -0.67181717   2.43284955  -0.96041823
H   -1.12972387   3.86744467  -1.11583217
C   -0.86106676  -3.73908755   0.03786907
H   -0.74001392  -4.75036648   0.36583452
H   -1.24804992  -3.73154260  -0.95967100
H   -1.54258296  -3.23223191   0.68866252
C    0.50255041  -3.02395292   0.06489998
N    1.51782538  -2.49150268   0.08502571
C    0.02156978   1.29424835   2.23364519
H   -0.36508351   2.28629325   2.12759654
H    1.03623033   1.26881528   1.89494737
H   -0.01830055   1.00402586   3.26276149
C   -0.82490927   0.32075156   1.39258797
N   -1.45515139  -0.40406104   0.76638265
