21
Energy:   -119.41392447
O   -0.10480095  -0.63035284   2.47175318
H    0.67929990  -0.18459886   2.15125186
H   -0.21262002  -0.31170247   3.36789426
O   -1.08662246  -1.80414374   0.18789500
H   -0.98728523  -2.74839353   0.30937042
H   -0.79616058  -1.42366976   1.01681194
O    0.64891277  -0.77074911  -1.67731348
H    0.26261807   0.09394917  -1.81625642
H    0.07219669  -1.19160145  -1.03972920
C   -3.22001782   0.96828700  -0.38665990
H   -3.76014620   1.83722177  -0.07342856
H   -2.98227121   0.36903393   0.46731399
H   -3.82133925   0.39984622  -1.06503053
C   -1.91935845   1.39827750  -1.09021755
N   -0.95095843   1.71842498  -1.61404820
C    3.34790612   0.93866995  -0.88017388
H    3.56141071  -0.04118936  -1.25325794
H    4.25918208   1.49198570  -0.78897686
H    2.69075944   1.44287299  -1.55754869
C    2.67486170   0.82689814   0.50044854
N    2.17374954   0.74367895   1.52838469
