21
Energy:   -117.57406267
O   -1.48646531   0.83223201   1.37209463
H   -1.86243206   0.45408145   0.57718394
H   -2.22093002   1.27396531   1.79831656
O   -2.47629705  -0.24674083  -0.97952745
H   -1.70788653  -0.21455704  -1.54938825
H   -3.22130126  -0.23705782  -1.58044909
O    1.04564898   1.29055360   2.44033243
H    1.62118554   0.69280603   1.96316646
H    0.17975361   1.14556465   2.05897269
C    2.11993435   1.39709786  -1.96073371
H    1.87426605   2.19335083  -1.28951954
H    2.48387943   1.80534271  -2.88039627
H    2.87526699   0.77999308  -1.52078670
C    0.86258761   0.55168947  -2.23634908
N   -0.07356419  -0.07775550  -2.44155725
C    0.12121447  -2.58993510   0.61299990
H    0.00126576  -2.97919073  -0.37644062
H   -0.78618937  -2.11421501   0.92155745
H    0.35113591  -3.38979226   1.28550547
C    1.26892121  -1.56318105   0.62505712
N    2.12344105  -0.79871600   0.63403427
