21
Energy:   -119.11096396
O    0.97739823   0.23368175   1.92698961
H    0.08474287   0.55892861   2.04366331
H    1.17560860  -0.22206326   2.74506112
O    0.34678849  -1.44349891  -0.16716557
H   -0.17962299  -0.89612798  -0.74983861
H    0.60120195  -0.85867783   0.54662007
O   -1.07699228   0.18088231  -1.87898402
H   -0.43250022   0.88859209  -1.87603346
H   -1.09189861  -0.12635417  -2.78541405
C    3.26990748   0.79158032  -0.44038679
H    4.18750712   1.00025400  -0.94966704
H    3.13950781  -0.26738787  -0.35987973
H    3.29921136   1.22276882   0.53844765
C    2.09475023   1.39478076  -1.23206518
N    1.21979225   1.84389090  -1.82150572
C   -3.24972040  -0.87560926   0.43065909
H   -4.13559057  -1.21637478   0.92463589
H   -2.66252843  -1.71804278   0.12997579
H   -3.52012361  -0.30318479  -0.43195985
C   -2.43066714   0.00345110   1.39398906
N   -1.82084476   0.65795150   2.11123201
