21
Energy:   -117.71307375
O    1.21956937   2.02959682  -0.09480250
H    0.98366064   2.79586860  -0.61768536
H    1.39983018   1.34539834  -0.73948098
O   -0.84112582   1.15375167   1.51454137
H   -0.13145459   1.43333298   0.93623965
H   -0.92311866   1.86178324   2.15344694
O    1.47701096   0.04163357  -1.96298177
H    0.54008173   0.01579582  -2.15721840
H    1.76356883  -0.86828144  -2.04153817
C   -2.94183506  -1.01692140  -0.27627200
H   -2.58050999  -1.99457810  -0.03433867
H   -3.94126575  -1.08881651  -0.65159652
H   -2.93384848  -0.40620420   0.60228353
C   -2.03493309  -0.38532646  -1.34875354
N   -1.35970335   0.08492469  -2.14726479
C    1.68497730  -1.08556468   1.60749589
H    2.37778717  -1.71416764   2.12689263
H    1.01659634  -0.63413373   2.31061471
H    2.22026373  -0.32173586   1.08315529
C    0.87940419  -1.92991342   0.60264407
N    0.27961840  -2.55856943  -0.14551378
