12
Energy:    -98.63807001
O    0.47575010  -1.85391897  -0.85127602
H    0.08348981  -2.71305180  -1.00701454
H   -0.27077503  -1.26012070  -0.77167894
O    0.39784757   1.83097817  -0.40278835
H    0.63443934   2.70399237  -0.08957535
H    0.88189714   1.23252195   0.16622660
O   -1.61352476   0.07559525   0.08242082
H   -1.09095610   0.84207453  -0.15351001
H   -2.50867913   0.31113732  -0.16140380
O    1.18886130  -0.11446227   1.17043161
H    1.28977502  -0.82639743   0.53861156
H    0.28672913  -0.19459756   1.48021820
