12
Energy:    -98.53585527
O    0.94147755  -0.28530906  -1.50974601
H    1.18982343  -0.88045104  -2.21710885
H   -0.00893936  -0.37659335  -1.44187313
O    0.57366521   1.45868329   0.53389778
H    1.06317146   2.27355465   0.42164737
H    0.85527914   0.90707322  -0.19593218
O   -1.66551358  -0.09627606  -0.62700616
H   -1.39574972  -0.71364554   0.05293077
H   -1.41864523   0.76227964  -0.28324755
O   -0.14241783  -1.24029691   1.51544563
H    0.35121253  -0.44197859   1.32769904
H   -0.18348303  -1.27792372   2.47102384
