12
Energy:    -99.72320802
O   -0.45799334  -0.91470593   1.27101729
H   -0.46032003   0.03595936   1.15938424
H   -0.91987358  -1.06052466   2.09662943
O   -1.12982388  -0.27382332  -1.50288524
H   -0.17436912  -0.27391368  -1.56066105
H   -1.32206249  -0.76680094  -0.70523292
O    1.58410044  -0.26667749  -0.56023551
H    2.37898708  -0.79807484  -0.60500082
H    1.05943368  -0.67711576   0.12714871
O   -0.22279553   1.71362119   0.51444922
H   -0.84049123   1.63367611  -0.21238821
H    0.62889761   1.50726984   0.12939110
