12
Energy:    -97.76569811
O    0.53567861   1.51836974   0.85049412
H    1.02160428   1.68083305   1.65901979
H   -0.16003863   0.91271172   1.10620438
O   -0.19605323   0.56329376  -1.57747762
H   -0.56774778   1.20370645  -2.18406363
H    0.10310422   1.08414455  -0.83219169
O   -1.35791690  -0.42099905   0.87399344
H   -1.50582835  -0.22428293  -0.05102376
H   -0.66585415  -1.08226473   0.87104228
O    0.94454944  -1.73225889   0.10588951
H    0.93040363  -0.97525820  -0.47975688
H    0.95836656  -2.48890051  -0.48022856
