12
Energy:    -97.83364682
O   -1.27976771  -0.74885595   0.71511173
H   -0.37544427  -0.73257636   1.02842618
H   -1.74573198  -1.28725666   1.35482559
O    1.34860296  -0.27726617   1.12346035
H    1.10026950   0.54871671   0.70835238
H    2.22017003  -0.11251515   1.48326557
O    0.03042819   1.76515169  -0.11450359
H   -0.78822603   1.42149522   0.24317971
H    0.08741820   1.38529810  -0.99125626
O   -0.01008890  -0.39559546  -1.90337508
H   -0.28248926  -0.70335659  -1.03890242
H   -0.35383550  -1.05077547  -2.51067178
