12
Energy:   -101.02166178
O    1.32840378  -1.20376915  -0.86685975
H    0.57095560  -1.55983771  -0.40240384
H    2.07181457  -1.70722824  -0.53504474
O   -1.35690220   1.32722237   0.92054877
H   -0.49979801   1.31442488   0.49459047
H   -1.64117256   2.23925785   0.86043648
O   -1.03223958  -1.55228954   0.36676275
H   -1.90376564  -1.84986745   0.10576168
H   -1.19651841  -0.81640090   0.95643404
O    0.92167487   1.44006340  -0.48651034
H    1.06895343   0.50592189  -0.63456615
H    1.74453114   1.85637192  -0.74307735
