12
Energy:   -100.58485929
O   -1.32415620   0.75050567   0.94491733
H   -0.39179416   0.61073667   1.11043924
H   -1.69393651   0.94674762   1.80572130
O    1.31689616  -0.14145796   0.84198579
H    0.80983189  -0.83492064   0.41981618
H    2.10489351  -0.58095006   1.16157729
O   -0.51249692  -1.54505324  -0.58319917
H   -1.17750115  -1.04037032  -0.11490828
H   -0.22824125  -0.96797152  -1.29200609
O    0.45157927   0.81324409  -1.69737615
H    0.99776668   0.74637470  -0.91415227
H   -0.31561213   1.31015028  -1.41323985
