12
Energy:   -101.21031171
O    1.57013716   0.18497623  -0.29150339
H    0.86737974   0.57355148  -0.81243826
H    2.36904351   0.59604223  -0.62166278
O   -0.84823548   0.91524137  -1.26463045
H   -1.11597251   1.17148555  -0.38208434
H   -0.97991910  -0.03252627  -1.28968568
O   -0.49806915   0.37154204   1.59167665
H   -0.30824423   0.65977815   2.48449146
H    0.35803285   0.33105258   1.16543514
O   -0.60391505  -1.72346518  -0.40800830
H   -0.93087549  -1.40442394   0.43314651
H    0.32818615  -1.50580759  -0.40134755
