12
Energy:    -98.79920447
O    1.01768243   1.40508826   0.95014604
H    1.87765591   1.52292592   0.54667146
H    0.39628137   1.67408510   0.27358615
O   -0.59469589  -1.36970207  -1.43764320
H   -0.39395740  -2.02637949  -2.10450950
H   -0.27019713  -1.74975032  -0.62125130
O   -1.09115750   1.49389228  -0.98281833
H   -0.87676794   0.58473409  -1.19186464
H   -1.84290611   1.43374844  -0.39333670
O    0.54948483  -1.31311927   1.40551680
H    0.57895157  -1.38712093   2.35939694
H    0.71443575  -0.38643819   1.23149034
