12
Energy:    -98.19710584
O    0.67030128   1.83931303   0.09711974
H    0.88038716   2.65241932  -0.36217747
H    0.56881972   1.18993836  -0.59875803
O    0.28155091  -0.00350432  -1.88941642
H    0.23450973  -0.85746357  -1.45956462
H    0.42136500  -0.20764873  -2.81408335
O   -0.75941859   0.19944970   2.06497682
H   -1.58159437   0.50110483   2.45132253
H   -0.46385582   0.93341343   1.52630090
O   -0.08044354  -2.02438396  -0.09031793
H   -0.01930607  -2.85695621   0.37799553
H   -0.21346886  -1.37161999   0.59702136
