12
Energy:    -97.32386849
O   -1.03166603  -0.13093265  -1.66400940
H   -1.90186991  -0.36866147  -1.98410634
H   -1.17276466   0.12426541  -0.75230935
O    1.64850631  -0.02461459  -0.93188768
H    0.75161593  -0.02116437  -1.26626411
H    2.19641379   0.04316646  -1.71383075
O   -1.48394627   0.56312788   0.93187857
H   -2.02204101   1.09104896   1.52178130
H   -0.94104831   0.03119753   1.51372370
O    1.16788170  -0.24821245   1.74417930
H    1.33735395  -1.18988831   1.71665505
H    1.28732252   0.04364279   0.84041702
