12
Energy:    -97.24796244
O    0.90793620   0.83961083   1.06279188
H    1.15930283   0.32326988   0.29699902
H    1.73655488   1.04772244   1.49443117
O    0.62762862  -0.62958237  -1.35101741
H   -0.11481829  -0.02638503  -1.31699680
H    0.87915306  -0.64874497  -2.27438088
O   -0.57787691  -1.55164570   1.15965733
H   -0.22822064  -1.68338527   0.27839856
H   -0.14478255  -0.75781453   1.47349358
O   -1.31350663   1.15764667  -0.68536174
H   -2.02305333   0.66621791  -0.27151020
H   -0.71401839   1.36354937   0.03188980
