12
Energy:    -99.16903968
O   -0.92594850   0.48005384   1.24880215
H   -0.31444092  -0.25594520   1.22439436
H   -1.74092797   0.10400895   1.58141385
O    0.92273693  -1.51344268   1.20514914
H    1.20852725  -1.37789888   0.30172032
H    1.58235400  -1.06603484   1.73520893
O    1.13526095  -0.69845644  -1.34796608
H    0.49389522  -1.18478648  -1.86600560
H    0.73690339   0.16237761  -1.21948325
O   -1.01681861   1.58617783  -1.24681458
H   -1.18947859   2.52691977  -1.20906564
H   -0.95498622   1.31656989  -0.33045211
