12
Energy:    -97.71223012
O    0.75621023  -0.28045185   1.89007080
H    1.34974367  -0.16465873   1.14808573
H    0.94398533  -1.16200810   2.21229887
O    1.36292013   0.53224668  -0.76346854
H    0.60049568   1.05803267  -0.52162168
H    0.99382505  -0.27207937  -1.12824279
O   -1.21479476   0.98989128   0.36043308
H   -0.69765503   0.61050246   1.07096982
H   -1.68766468   1.71518692   0.76856556
O   -0.57292375  -1.25507768  -1.57977695
H   -1.01105256  -1.12386022  -2.42064374
H   -1.00406052  -0.64041144  -0.98602756
