37
Energy:   -673.38937046
O    1.66356200   1.14507941  -3.06593370
H    2.07746919   1.49598823  -3.85446124
H    1.03697158   0.49867865  -3.39117568
O    1.16378509  -1.96994493   3.00678597
H    1.61466476  -2.56425129   3.60656869
H    0.69455873  -1.36237152   3.57854905
O    0.03698109   2.92427778   1.58013623
H   -0.00117149   2.82040728   0.62935384
H    0.38244664   3.80725604   1.71141754
O   -1.67999381  -0.30385579   0.83287123
H   -2.12240660   0.29738032   1.43205226
H   -2.01266492  -0.06775883  -0.03305025
O    0.02433285   0.38547761   3.89539219
H   -0.82520697   0.75664319   3.65716949
H    0.21640078   0.75840429   4.75578016
O    2.43816462  -0.44828912  -0.93210327
H    2.19141192  -1.30121691  -1.28967723
H    2.40405926   0.14536669  -1.68219757
O   -2.12796397   1.67391617   2.74207483
H   -1.49780947   2.29307165   2.37358650
H   -2.84907455   2.22154368   3.05245442
O    0.09547069   1.89141468  -0.92280791
H    0.69686335   1.83229075  -1.66514414
H   -0.72459058   1.52008180  -1.24814351
O   -2.05860629   0.43275324  -1.81848392
H   -2.85373904   0.64782308  -2.30607056
H   -1.52618584  -0.06805734  -2.43650421
O   -0.24247333  -0.83714892  -3.49472070
H    0.19950723  -1.53293187  -3.00812937
H   -0.47657448  -1.24034040  -4.33070223
O    0.05213375  -2.42381060   0.51669910
H    0.37377995  -2.58941547   1.40289919
H   -0.77737653  -1.96359634   0.64455599
O    1.11658430  -2.67176047  -1.96800829
H    1.44952304  -3.55350118  -2.13509199
H    0.69380918  -2.73318679  -1.11143380
K    1.00412122   0.21864040   1.20969334
