37
Energy:   -674.10287139
O    1.81780487   1.75312480  -2.07223588
H    2.36948122   2.29795889  -2.63352089
H    1.38845199   1.14566250  -2.67462904
O    0.20713855  -2.14525257   3.09008162
H    1.10770957  -1.83048863   3.16835900
H    0.06577654  -2.66704784   3.88000460
O   -0.85536672   2.86536248   2.11022829
H   -0.74065308   2.93057670   1.16216725
H   -0.67888714   3.74845463   2.43462780
O   -2.32806018  -0.76787231   0.11616947
H   -2.85839881  -0.25053545   0.72225144
H   -2.41323148  -0.31580959  -0.72324521
O    2.39834937  -0.48359731   2.65218568
H    2.63999702  -0.42066650   1.72813050
H    3.19624523  -0.24785306   3.12549182
O    2.14681339  -0.13614846  -0.07407962
H    2.04907278  -0.91148119  -0.62683434
H    2.23367261   0.58970912  -0.69199393
O   -2.77134712   0.89293392   2.32689932
H   -2.36527105   1.75841995   2.37452284
H   -3.47789309   0.92352497   2.97194879
O   -0.40332568   2.07257301  -0.47798758
H    0.38938352   2.15128514  -1.00869312
H   -1.06669053   1.74390380  -1.08474575
O   -2.01054869   0.67531298  -2.22904651
H   -2.65450120   0.90863942  -2.89771368
H   -1.27028481   0.32132365  -2.72192864
O    0.35806367  -0.20835490  -3.39165096
H    0.69914567  -0.95536925  -2.89985377
H    0.42729019  -0.47310611  -4.30890028
O   -0.20569267  -2.48544313   0.35277500
H   -0.15198091  -2.72513727   1.27792018
H   -1.10817227  -2.18956790   0.23352623
O    1.41747958  -2.18479227  -1.79185217
H    1.88128501  -2.99019279  -2.02086392
H    0.81039109  -2.44605690  -1.09945329
K   -0.13351917   0.15689837   1.54315381
