37
Energy:   -673.71535499
O    1.71191208  -0.09389616  -2.67544271
H    2.18338194  -0.46485979  -3.42132072
H    0.91468014   0.27554492  -3.05513520
O    0.18774609   0.50392387   3.87799502
H    0.96620655   0.66203051   3.34392250
H    0.24076734   1.15459931   4.57802507
O    2.40705839   1.72099164  -0.72891225
H    3.13756270   2.29873210  -0.94984496
H    2.35664840   1.10697529  -1.46149303
O   -0.39344889  -2.00315637   2.95557640
H   -0.90832321  -2.60828267   3.48939140
H   -0.17491687  -1.28527109   3.54981232
O   -0.34603013   2.01318212  -0.77308902
H    0.60828197   2.08737468  -0.77705392
H   -0.56982355   1.74787395  -1.66514280
O    1.77250347   0.39637516   1.61797212
H    2.06085439  -0.50617937   1.48202762
H    2.13942424   0.87962552   0.87765456
O   -1.76448406   2.79279582   1.49392694
H   -2.17589908   3.63560708   1.68533934
H   -1.36453566   2.91113827   0.63237707
O   -0.80023035   0.86107796  -3.27383923
H   -1.33489790   0.09408327  -3.06870123
H   -1.24819538   1.27564154  -4.01119682
O   -1.98289140  -1.45350336  -2.34459229
H   -1.21657147  -1.62980417  -1.79878680
H   -2.16712407  -2.28773751  -2.77626758
O    0.23155979  -1.40690760  -0.73464334
H    0.79490622  -1.90950681  -0.14619906
H    0.83437978  -1.01111560  -1.36407848
O   -3.17936882  -0.63315888  -0.00098189
H   -4.13584483  -0.59631951  -0.00630710
H   -2.94616941  -0.94072716  -0.87691090
O    1.78504637  -2.38697687   1.31408296
H    2.36678498  -3.11884130   1.51947648
H    1.08592785  -2.44607278   1.96521491
K   -0.98643783   0.22002650   1.27418340
