37
Energy:   -673.33066020
O   -0.15750302   2.31192197  -3.09694257
H   -0.08877056   2.75047765  -3.94498539
H   -0.07566907   1.38035289  -3.30118287
O    0.26837285  -2.55392891   0.67575589
H    0.73149368  -2.75256809   1.48957001
H    0.93732951  -2.62681486  -0.00499111
O    1.08326751  -2.21285741   3.36341678
H    0.97916690  -2.67620459   4.19450300
H    0.37031981  -1.57423067   3.35375696
O   -2.35640287  -1.84692592   0.96069744
H   -1.53064016  -2.31375267   0.83255463
H   -3.01034677  -2.53883762   1.05993167
O    2.89960885  -0.51131376   2.21729148
H    3.77293957  -0.44654590   2.60372443
H    2.44309516  -1.15248720   2.76201501
O    1.72074538   2.20792144  -1.08422278
H    2.42727092   2.84349612  -1.19867073
H    1.14223885   2.35482846  -1.83254114
O   -0.78904214   2.23818971   1.45965310
H   -1.25661021   2.47185672   0.65777301
H   -0.68358527   3.06729357   1.92623372
O   -2.00950628   2.56783626  -1.01862422
H   -2.77742464   3.08500281  -1.26167155
H   -1.42478908   2.63721265  -1.77329273
O   -0.81417290  -0.30558822   2.67147082
H   -1.05097377   0.61476465   2.55698157
H   -1.51800862  -0.78995902   2.23992469
O    1.86130085  -1.48444565  -1.43808526
H    2.71942419  -1.68057061  -1.81410545
H    1.33257645  -1.19840653  -2.18297718
O   -1.39094884  -0.11429936  -0.93747464
H   -1.91994933  -0.67678063  -0.37178465
H   -1.83936777   0.73122872  -0.92215862
O    0.00501969  -0.45053880  -3.23428107
H   -0.60398205  -0.45883575  -2.49585038
H   -0.40706849  -1.01129072  -3.89152719
K    0.94239594   0.22437104   0.54818750
