37
Energy:   -674.94565856
O    1.31864323  -3.09462707   1.85642200
H    2.13465783  -3.03334606   1.35983700
H    1.41057987  -3.89639963   2.37114548
O    2.89153966   0.15038777   1.53591835
H    3.42318351   0.58924945   2.19998693
H    2.48265365   0.86377263   1.04589170
O   -1.28970415   3.17735254  -0.03508310
H   -1.56212878   4.09457842  -0.00837436
H   -1.48243972   2.89570300  -0.92937521
O   -2.13623337   0.83481273   1.13191381
H   -1.93739045   1.72858547   0.85287325
H   -2.62378734   0.45763627   0.39961545
O   -1.26023890  -0.03546498   3.63855500
H   -1.88047109   0.39339286   3.04895782
H   -1.65975349   0.04218234   4.50492146
O   -1.32216191  -2.19478520  -0.36456451
H   -1.76034937  -3.04366761  -0.30437934
H   -1.97420490  -1.61555962  -0.75898752
O    0.95161898   1.03532907  -2.50512883
H    1.06069285   0.14137668  -2.18080821
H    1.63353761   1.13446823  -3.16950091
O    1.04539810   1.68237822   0.18555770
H    0.36703156   2.35356077   0.26015437
H    1.13940443   1.53981407  -0.75628630
O   -3.02852886  -0.21469223  -1.27334347
H   -2.61120079   0.48077580  -1.78166753
H   -3.91998749  -0.26246361  -1.61867124
O   -1.66212210   1.88148137  -2.46649333
H   -0.75843901   1.58547983  -2.57590905
H   -1.89031562   2.27260488  -3.30980939
O    3.39078448  -2.25695937   0.24906803
H    4.30400346  -2.46993835   0.05696677
H    3.42970793  -1.40700449   0.68758086
O    1.18564692  -1.29765536  -1.14536692
H    1.94100405  -1.81025512  -0.85742779
H    0.44748736  -1.90419324  -1.08651018
K    0.17558874  -0.69528011   1.46799645
