37
Energy:   -680.24271664
O   -2.71853638   1.47988105  -2.02797968
H   -2.51148510   0.55826809  -1.87308887
H   -3.61823876   1.47210612  -2.35464012
O   -1.60502017  -0.91469306  -1.29699178
H   -1.82589316  -1.27758844  -0.43923079
H   -1.03016993  -1.56922279  -1.69369050
O    1.41484978   2.46066326   0.86359359
H    0.48561564   2.60327338   0.68354330
H    1.80954196   3.32965163   0.79072971
O   -1.89660128  -1.69388455   1.33595975
H   -2.05225774  -0.89533558   1.84026369
H   -2.46713083  -2.34781192   1.73982465
O    0.86682942   0.84389905   3.01998014
H    1.18443290   1.48273490   2.38181979
H    1.42835018   0.96932057   3.78496101
O    2.50425769  -2.86590022  -0.22017204
H    1.97323083  -2.42156286   0.44074144
H    2.83089774  -3.64969242   0.22165136
O   -1.87923953   0.74730199   2.60810538
H   -2.39890588   1.13278458   3.31350024
H   -0.97465287   0.80959115   2.91482168
O   -0.18591694   1.93114185  -3.04230104
H   -1.12494865   1.91173601  -2.85770764
H   -0.10926752   2.45135306  -3.84213666
O   -1.17421637   1.99322246   0.22582409
H   -1.61531945   1.63141712   0.99443116
H   -1.84487785   1.99492043  -0.45714160
O    0.69507862  -2.16685964  -2.19217529
H    1.32046084  -2.58698961  -1.60173501
H    0.85278147  -2.57904904  -3.04156422
O    0.80608270  -1.20891818   1.16795870
H    0.94182851  -0.61800052   1.90864841
H   -0.09331635  -1.51994690   1.27079025
O    3.41639080  -0.40182283  -1.10974428
H    3.34516008  -1.31402519  -0.82859505
H    4.34522216  -0.28384886  -1.30870731
K    0.87056272   0.45173766  -1.07703593
