37
Energy:   -674.25237598
O    1.44304192   1.47797817  -1.78360431
H    0.77937736   1.15289303  -2.39196345
H    1.18819320   2.38461754  -1.61246389
O    0.41233178  -2.15640505   1.85411353
H    1.12878875  -2.58811310   1.38876481
H   -0.38104511  -2.55260049   1.49381624
O    0.07933948   3.70994193  -0.75662728
H   -0.28658349   4.51994973  -1.11190124
H   -0.67066995   3.11975756  -0.68314176
O   -1.53649772   1.45777635  -0.50424519
H   -2.24479361   0.97892807  -0.07383479
H   -1.51775016   1.10879396  -1.39536341
O   -0.95635923   0.00177228   2.92327747
H   -0.89925006   0.32322612   3.82307623
H   -0.52723438  -0.85353671   2.94630444
O    3.21002456  -0.18148503  -0.46702715
H    4.11059226   0.12426182  -0.35872880
H    2.83697837   0.40050159  -1.12911472
O   -3.05241738  -0.21158100   1.14201858
H   -2.46833287  -0.06569782   1.88619278
H   -3.92289773   0.00927334   1.47325742
O    1.39653773   2.80533805   1.48665230
H    1.00131104   3.33111092   0.79124551
H    1.84514934   3.44185606   2.04327093
O   -0.81196570   0.33501687  -2.93856994
H   -0.58632565  -0.49683077  -2.52221923
H   -1.09129507   0.09340612  -3.82165045
O   -0.06756489  -1.62948596  -1.19849411
H    0.70589091  -2.17489943  -1.05523867
H   -0.77615475  -2.09701929  -0.75628958
O   -1.96720699  -2.66977573   0.49877800
H   -2.50594106  -1.90230559   0.69109813
H   -2.59048311  -3.39468679   0.45121025
O    2.25698168  -2.75906507  -0.19652507
H    2.78233786  -1.97214845  -0.34142144
H    2.84167486  -3.48276327  -0.42152875
K    0.69979946   0.35385164   0.67032252
