37
Energy:   -674.04562676
O    1.60131739   0.20284466  -1.12007457
H    0.92948859   0.55134505  -1.70609965
H    2.17449786   0.94843978  -0.94179415
O    2.80890076   2.23742649   0.30212859
H    2.05555605   2.81335432   0.43255380
H    3.56645874   2.82144236   0.33767038
O   -1.84159068   2.26502329  -0.76996896
H   -1.47353990   1.81212061  -1.52868474
H   -2.55205329   2.79652191  -1.12911229
O   -2.14583338  -2.13152490   0.06528061
H   -2.88885409  -2.73209365   0.12418092
H   -1.93281389  -2.10405735  -0.86751094
O    2.01981012  -1.58095948   3.16175565
H    1.57257601  -2.20949480   2.59504862
H    2.41008097  -2.11618695   3.85273471
O   -1.14404425  -1.93764715  -2.51236119
H   -1.42937159  -2.50963003  -3.22486083
H   -0.25801896  -2.23522917  -2.30587641
O   -0.64961397   1.86052035   3.27803872
H   -1.00821780   2.02885517   4.14941609
H   -1.33322741   1.36310050   2.82917570
O    0.25766043   3.01611697   0.89048414
H   -0.48566712   2.94702413   0.29138300
H   -0.13707906   3.02698740   1.76243278
O   -0.59377416   0.76865363  -2.71431562
H   -0.53258785   1.00478286  -3.63991330
H   -0.87978601  -0.14480953  -2.71807492
O    0.48997153  -2.28549163   0.92749831
H   -0.45177011  -2.37197642   0.77959664
H    0.88755341  -2.52902061   0.09152335
O   -1.68320582   0.34081193   1.19525076
H   -1.90577083   0.97178409   0.51072844
H   -1.98985601  -0.49991577   0.85558263
O    1.42030161  -2.46288171  -1.67661078
H    2.21021016  -2.88382872  -2.01584515
H    1.66893177  -1.54617316  -1.55803459
K    1.06996737   0.38784249   1.61961275
