37
Energy:   -675.72994298
O    0.34289712  -1.34410890  -4.19127880
H    0.47087963  -1.97048996  -3.47888909
H    0.48784186  -1.85412332  -4.98821553
O    0.05919559  -2.28824409   2.38140680
H    0.09118940  -1.33377253   2.44615459
H   -0.01842176  -2.58776253   3.28721920
O   -0.07673505   3.11875470   1.36290400
H    0.05902605   3.98249178   1.75246660
H   -0.94841702   3.16685300   0.97036236
O   -1.70595875  -2.52268133   0.25845333
H   -2.37630838  -3.20021467   0.34683767
H   -1.19718054  -2.58152951   1.06710249
O    0.34761837   0.43882226   2.04267845
H    0.17753547   1.37819974   2.11248961
H    1.26181718   0.38043638   1.76507535
O   -1.47605820   0.21793487  -0.00781973
H   -0.81239837   0.30983509   0.67580431
H   -1.76911176  -0.69056237   0.06277934
O   -2.50535114   2.75669400   0.09889927
H   -3.39030107   2.85026287   0.45151854
H   -2.33958892   1.81407038   0.11357723
O    1.41060906   1.84270204  -0.64437647
H    2.06754429   1.35313180  -0.14941290
H    1.00621966   2.42212907   0.00135210
O   -1.81739703   2.64398858  -2.57544210
H   -2.17869422   3.33375686  -3.13214302
H   -2.13667047   2.85234180  -1.69744139
O    2.87368989   0.14719983   0.99583047
H    3.76540164   0.26619643   1.32281946
H    2.80807614  -0.79015378   0.81336160
O    0.41120898  -2.01623588  -1.46039784
H   -0.36624494  -2.31666337  -0.98971688
H    1.13982766  -2.21669900  -0.87289362
O    2.19406579  -2.49375004   0.61645732
H    2.70076371  -3.30120245   0.70311566
H    1.51615693  -2.56251160   1.28872459
K   -0.12214201   0.58801647  -2.40978110
