37
Energy:   -673.56616901
O   -0.99337372  -2.96923298   1.35297260
H   -0.72702299  -3.06231508   0.43830061
H   -0.58182087  -3.70928169   1.79927297
O   -3.12706962  -1.37946279   1.93638730
H   -2.59364377  -2.16187151   1.79665433
H   -3.88998340  -1.69276389   2.42222352
O    3.14867722   0.46749843  -1.18761225
H    2.43816833   0.71742855  -1.77832699
H    3.87203622   0.23181388  -1.76850501
O    1.35541328   1.07166451   3.11358151
H    1.76177146   1.21825552   3.96775711
H    1.98915007   1.41572741   2.48411328
O    2.86983122   2.11664502   1.02494399
H    3.55701653   2.78221608   1.05693395
H    3.13382156   1.53313228   0.31356939
O   -2.18401858   2.28991164   1.14018434
H   -2.58782843   3.11405765   1.41212698
H   -1.35915464   2.55054814   0.73042841
O   -2.54264581   0.01320763  -0.37371127
H   -3.03413621  -0.52474304   0.24699648
H   -2.65412607   0.90910083  -0.05562420
O   -0.09228758  -2.93855128  -1.27752570
H    0.08577514  -3.66096119  -1.87972952
H   -0.49253488  -2.26294694  -1.82487633
O    0.29336365   2.12243928   0.03286431
H    0.44625283   1.86056621  -0.87503394
H    1.16793306   2.28530954   0.38618212
O   -1.17705464  -0.77008770  -2.59198453
H   -1.72610727  -0.47689054  -1.86479234
H   -1.78235148  -0.86219824  -3.32775843
O    0.81611398   1.15120923  -2.51336676
H    0.15663606   0.46383735  -2.60739134
H    0.70652907   1.69705042  -3.29200685
O    1.33286010  -1.08079362   0.20442908
H    2.06710505  -0.67235685  -0.25415090
H    1.06485234  -1.80149455  -0.36565325
K   -0.62517223  -0.04200919   1.70090647
