37
Energy:   -675.16258423
O    0.91822946   2.95977773  -1.11479912
H    1.03941217   2.50982247  -1.95091326
H    1.27109402   3.83743255  -1.26122478
O    1.85775993  -0.95126194   2.81952107
H    2.04612015  -1.51920446   2.07239754
H    2.46041145  -1.24542322   3.50253801
O   -0.30829863   2.32151143   2.63121246
H   -0.66053206   1.46390638   2.86928185
H   -0.34786446   2.83040396   3.44096230
O   -0.82009321  -0.37294276   2.42802601
H   -0.06800989  -0.82789478   2.80699988
H   -1.34585248  -1.06755481   2.03138620
O   -1.45653701   2.23057001   0.13274968
H   -0.84094208   2.73495362  -0.39910735
H   -1.28135124   2.50913559   1.03160618
O    1.91248054  -1.89545259   0.27435173
H    2.42245921  -1.52099491  -0.44393445
H    1.25261426  -2.43815068  -0.15725819
O   -2.97047605   0.11075498  -0.65969049
H   -3.78894560   0.37183226  -1.08180196
H   -2.60710475   0.92664450  -0.31542687
O    1.22805310   1.15523949  -3.18093151
H    1.10361880   1.11567051  -4.12918371
H    0.55335001   0.57642740  -2.82598905
O   -0.40830224  -0.35376638  -1.58889794
H   -1.33128352  -0.15574632  -1.43038781
H   -0.35115196  -1.30641500  -1.51523441
O    2.97833521   0.17637023  -1.28640195
H    2.53033226   0.48629670  -2.07346661
H    3.90881680   0.29333970  -1.47811530
O   -2.30094563  -2.10464277   0.85251202
H   -3.06623962  -2.54640581   1.22048262
H   -2.66328266  -1.37242326   0.35371515
O   -0.33653146  -3.00896082  -0.87525641
H   -0.51374462  -3.87350911  -1.24590936
H   -1.04502857  -2.86719294  -0.24743035
K    0.98031736   0.75796466   0.62887086
