37
Energy:   -678.56451547
O    0.56339973   3.37774498  -1.40166157
H    0.64499872   4.30087415  -1.64125705
H    1.44586735   3.02294329  -1.50935797
O   -1.02590443  -1.13349934   0.90622095
H   -0.13590421  -1.43899063   1.08173888
H   -1.36839926  -0.88590154   1.76507161
O    2.79513360   1.75529436  -1.52842138
H    3.62331671   1.75557219  -2.00836357
H    2.27065344   1.07780165  -1.95521879
O    0.53262536   1.38554785   3.32776162
H    1.06001549   1.93838662   3.90435575
H    1.06362571   1.28782649   2.53736867
O   -1.82977142   0.05784675   3.25926217
H   -1.00826991   0.52390572   3.41468465
H   -2.11376070  -0.22440848   4.12869528
O   -1.87947407  -0.06396217  -2.50475351
H   -2.54053991   0.04668088  -3.18811426
H   -1.98564025  -0.96924133  -2.21246902
O    1.65534527   0.89262102   0.86329110
H    2.25037802   1.23170262   0.19456728
H    1.82285535  -0.04969233   0.87804849
O    0.89249190  -0.09438858  -2.24823069
H    0.05505293  -0.06706579  -2.71102792
H    1.05897962  -1.02653358  -2.10816146
O   -2.76828199   1.81614100   1.35139877
H   -3.50919600   2.36441525   1.60961110
H   -2.60477683   1.25954117   2.11277552
O    1.63477655  -1.87360797   0.89580963
H    1.55906130  -2.29502158   0.03970822
H    2.18007517  -2.46961013   1.40929057
O   -1.75742548  -2.55547311  -1.30730952
H   -1.64377395  -2.15554587  -0.44511849
H   -2.43314103  -3.22063052  -1.17613799
O    0.98506467  -2.78635937  -1.62623373
H    1.27804077  -3.50374071  -2.18815977
H    0.03254571  -2.87678440  -1.59861498
K   -0.77802199   1.32070740  -0.35422160
