37
Energy:   -673.66544953
O    2.49251036  -0.22853247  -0.19098796
H    2.25606248  -1.14889066  -0.07581401
H    2.60887897  -0.12705038  -1.13565275
O   -0.44409411  -2.88416513  -1.63038765
H    0.22349384  -2.88055395  -0.94442473
H   -0.42103355  -3.77374074  -1.98302812
O    2.29512338   0.47616868  -2.86979952
H    2.82227362   0.30550764  -3.65032452
H    1.43519049   0.10990170  -3.07618697
O   -0.34261718  -0.80335929   1.81956057
H   -0.72292421  -0.39296994   2.59620656
H   -1.09597305  -1.12885653   1.32687575
O    1.59893632   2.75895461  -1.45781456
H    1.91777063   2.06117033  -2.03024240
H    1.87977022   3.56769932  -1.88594557
O   -1.83113321   2.44846801   1.23976351
H   -2.28917693   3.27387608   1.08124122
H   -1.91805164   1.96423493   0.41866951
O    1.01110669   2.11691435   3.42774338
H    0.17823656   1.77871502   3.75665130
H    1.49010684   2.38060469   4.21340113
O   -1.32558761   0.74285515  -0.85875032
H   -0.98073517   0.52933303  -1.72576643
H   -1.77751429  -0.05273306  -0.57762127
O   -1.51879350   1.00293456   3.59058677
H   -1.81681495   1.55426558   2.86708890
H   -2.23589205   1.02992605   4.22404787
O   -0.24206468  -0.54368558  -3.10929656
H   -0.29670438  -1.39873847  -2.68252859
H   -0.75027885  -0.64427868  -3.91417620
O   -2.26921889  -1.67343686   0.04476605
H   -1.76892093  -2.22118128  -0.56013877
H   -3.12085321  -2.10533004   0.11124250
O    1.27734554  -2.62022492   0.49078874
H    1.76874257  -3.22783825   1.04356976
H    0.79550255  -2.07003612   1.10832533
K    0.82825655   1.56918367   0.82053567
