37
Energy:   -675.17757062
O    2.61905777   0.32281096  -0.95167014
H    2.40757983  -0.09148534  -1.78825098
H    3.56914151   0.43717494  -0.97388744
O    2.28705023  -0.05728321   2.96723245
H    1.83266389   0.76130086   3.16644346
H    2.91341869  -0.16442439   3.68306425
O    0.65568169   1.77625348   0.28274728
H    1.43278562   1.54057476  -0.22400401
H    0.00268535   2.01354905  -0.37567389
O   -1.53482589  -1.20072201  -0.53298848
H   -1.65489368  -1.93640483   0.06749996
H   -2.10563686  -0.51398353  -0.18831917
O    0.62333131   2.14223610   3.01101199
H    0.65614753   2.23423987   2.05880915
H    0.62437888   3.04142410   3.33917611
O    1.52312454  -2.80282242  -1.00445821
H    1.69346544  -3.72421343  -1.20004561
H    1.62150541  -2.35675994  -1.84563674
O   -1.18845307   0.09526976   2.47871978
H   -1.82063451   0.52948993   1.90597959
H   -0.70634696   0.81204380   2.89107947
O   -2.82914711   1.02535011   0.43206140
H   -3.73246455   1.33673129   0.48943062
H   -2.42963992   1.57134609  -0.24507540
O   -1.32337998   2.13397819  -1.61811925
H   -1.41760000   2.89944329  -2.18505630
H   -1.20001754   1.40171840  -2.22211358
O   -0.96967747  -0.23885496  -3.01456156
H   -1.60909305  -0.53512279  -3.66233076
H   -1.20428820  -0.70790441  -2.21382299
O   -1.18899280  -2.60126325   1.87844787
H   -1.49753021  -3.31311589   2.43907461
H   -1.39685867  -1.80432456   2.36621047
O    1.65955684  -1.04020000  -3.14961083
H    1.96388932  -1.10599844  -4.05475400
H    0.75200058  -0.74478608  -3.22244004
K    0.89112902  -1.00633698   0.89175177
