37
Energy:   -673.73422957
O    2.19220480   0.55301147  -2.00495878
H    2.89029868   0.88774246  -2.56785482
H    1.59211677   0.10975547  -2.60466731
O    2.24166846  -1.93234469   2.71533722
H    2.55456653  -1.98516825   1.81226673
H    2.92512594  -2.35975263   3.23151564
O   -0.62010302   3.39998032   1.46411806
H   -0.75853799   4.29546874   1.15562477
H   -0.30287409   2.92737910   0.69454302
O   -2.72631826  -0.24475009   0.05962760
H   -2.35116485  -1.08869592   0.31111759
H   -2.68468835   0.28349459   0.85678277
O    1.22834842   2.02503051   3.00485538
H    0.68953874   2.71732400   2.62191192
H    1.80119243   2.48037395   3.62189989
O    2.06272645  -1.37749000  -0.03038445
H    1.57089812  -2.02711987  -0.53269686
H    2.32780239  -0.72405783  -0.67768113
O   -2.00575566   1.16573961   2.33049002
H   -2.60465468   1.31212097   3.06269512
H   -1.68363333   2.03863734   2.10572655
O    0.16481808   1.51246609  -0.37951480
H    0.96121084   1.36346254  -0.88920919
H   -0.54861301   1.36429122  -1.00023385
O   -1.77821660   0.80817373  -2.21857636
H   -2.24219962   0.39529903  -1.49023161
H   -2.44639332   1.32856376  -2.66463234
O    0.14966604  -0.80847505  -3.31074306
H    0.00513059  -0.91027102  -4.25147625
H   -0.57884817  -0.26330015  -3.01361814
O   -1.11685129  -2.34351134   0.82549280
H   -0.70107880  -2.62966877   0.01217920
H   -1.43291920  -3.15115243   1.23052218
O    0.27582973  -2.88852519  -1.49454112
H    0.41458873  -3.71897171  -1.94988314
H    0.18119460  -2.24345130  -2.19536615
K    0.35733434  -0.22587472   1.84394703
