37
Energy:   -675.88842999
O    2.30424562   1.05936369  -0.90254269
H    3.07847761   1.61423740  -0.99694518
H    2.41593257   0.37692555  -1.56438562
O   -0.29283607  -1.34020326   3.35652761
H    0.59265946  -1.66602616   3.19537873
H   -0.45783086  -1.53939121   4.27812011
O   -1.51718819   3.52000507   0.01550000
H   -1.20851632   2.88404071  -0.62987033
H   -1.96090052   4.19155778  -0.50254264
O   -1.86602646  -1.15991313   1.08866990
H   -1.54585175  -1.44576347   1.94424549
H   -2.26436182  -0.30551572   1.25469958
O    0.77126093   3.07046099   1.53158320
H    0.02379902   3.44541684   1.06581432
H    1.17942669   3.81675065   1.97054141
O    2.17666549  -1.68501276   2.21857904
H    1.97645812  -2.03558312   1.35067969
H    3.03554084  -2.04951265   2.43236586
O   -2.15975125   1.48971320   1.75781284
H   -2.10265228   2.24906918   1.17785590
H   -2.67000789   1.79764045   2.50684609
O   -0.37778364   1.41069104  -1.30048660
H    0.57438426   1.49074627  -1.35704898
H   -0.60322171   0.75576844  -1.96115740
O   -0.68147723  -0.71092422  -3.06596805
H   -1.24366160  -0.72258533  -3.84059351
H   -1.03966627  -1.39406490  -2.49917772
O    2.04471234  -1.02133489  -2.69341964
H    2.51137930  -1.42487711  -3.42527172
H    1.14490154  -0.92626540  -3.00572423
O   -1.45629168  -2.57111869  -1.19610583
H   -1.96298496  -3.38271369  -1.22451904
H   -1.77130676  -2.11880369  -0.41354050
O    1.09074777  -1.96197838  -0.27751515
H    1.54928560  -1.77127624  -1.09581070
H    0.26249179  -2.35515287  -0.55253823
K    0.48520142   0.40739367   1.20594955
