37
Energy:   -673.39187696
O    1.74783491   1.62510956  -1.29856604
H    2.01488657   0.94698627  -1.91910134
H    2.47072446   2.25251985  -1.30291217
O    2.82914066  -1.51279053  -0.02892981
H    2.26618141  -2.18567624   0.35386719
H    3.67575904  -1.63539582   0.40053162
O   -0.88049864   3.21801441   2.25244751
H   -0.91770603   3.11120809   1.30195298
H   -1.24665076   4.08814390   2.41068513
O   -2.27949965  -0.91502227   0.42415087
H   -2.34933782  -0.41313497   1.23622452
H   -2.58703105  -0.31548163  -0.25570743
O    1.51264243   1.81416502   2.34754749
H    0.79347721   2.43709636   2.45237963
H    2.19741476   2.13742442   2.93305758
O   -0.22393213  -0.93212451  -1.92103921
H   -0.47952077  -1.84274187  -1.77379004
H    0.61461643  -0.98928763  -2.37907909
O   -1.58915974   0.58185966   2.63137843
H   -1.47388123   1.53193113   2.61385954
H   -1.85595124   0.38901710   3.53019203
O   -0.75084593   2.31299710  -0.32022276
H    0.04797696   2.32340336  -0.84748508
H   -1.42000356   1.95791796  -0.90535413
O   -2.41767911   0.72721108  -1.82108551
H   -2.96155315   0.82882893  -2.60217878
H   -1.69837427   0.16132933  -2.10146070
O    2.43012448  -0.71646276  -2.63192347
H    3.04924086  -1.04198541  -3.28534658
H    2.73573188  -1.08938365  -1.80502204
O    0.71319006  -2.79511117   1.14281791
H    0.67650188  -3.41340447   1.87261187
H    0.04750733  -3.10742333   0.52998884
O   -1.27561447  -3.20753611  -0.68323847
H   -1.89191614  -3.90200904  -0.91585715
H   -1.81775213  -2.53223562  -0.27545440
K    0.44510681  -0.00827710   0.66450443
