37
Energy:   -678.39892809
O    1.45071009   1.48366957  -2.40223476
H    2.08186634   1.54118610  -3.11956696
H    0.74135720   0.94287370  -2.74949569
O    1.09822606  -2.49319400   2.58754059
H    0.62825006  -2.99184311   1.91918179
H    1.57440678  -3.15445418   3.08975443
O   -0.95325477   2.04491451   0.82519316
H   -0.32050154   2.63559309   0.41659311
H   -1.40976074   1.63629989   0.08975572
O   -1.70425665  -1.12035602   1.12942406
H   -2.07227590  -0.64052758   1.87142025
H   -1.97800475  -0.62016056   0.36059487
O    2.18468189   2.33088781   1.97948358
H    2.90395549   2.84802658   2.34203680
H    1.94667439   2.78457463   1.17093392
O    1.54739793  -0.38238463  -0.36199923
H    1.35402797  -1.18750237  -0.84223388
H    1.67210547   0.27897502  -1.04264841
O   -1.81839516   0.82738751   3.13936672
H   -1.75234139   1.51244713   2.47411333
H   -2.35612476   1.21466436   3.83008762
O    1.14570839   3.36310991  -0.38991739
H    1.17543892   4.24814906  -0.75330927
H    1.28465898   2.78947616  -1.14348816
O   -2.22223784   0.48110327  -1.06550191
H   -3.07263844   0.67273249  -1.46088641
H   -1.67382899   0.20270260  -1.79896809
O   -0.51819583  -0.37277519  -3.05620414
H   -0.17183310  -1.18242376  -2.68105894
H   -0.81482790  -0.62156561  -3.93161524
O   -0.51577935  -3.49088096   0.55635076
H   -1.09873853  -4.23914959   0.68474275
H   -1.05309178  -2.72840975   0.77121089
O    0.60098756  -2.55975766  -1.77807508
H    1.15966832  -3.24379899  -2.14712129
H    0.18776230  -2.97101304  -1.01890069
K    0.68446842   0.11326977   2.10953933
