37
Energy:   -675.45061304
O    0.47344608   0.63238081  -1.33747147
H   -0.37465288   0.37018142  -1.69553779
H    0.51280333   1.57786544  -1.48149110
O   -0.37763027  -2.11966186   1.04768221
H   -0.24047638  -2.17054032   1.99363784
H    0.35856323  -2.60258003   0.67212793
O    1.36970092   3.00256217   1.08188056
H    0.99595391   3.29300903   0.24990361
H    1.74142106   3.79569201   1.46788709
O   -2.08838438   0.06217188  -2.23296165
H   -2.40691985  -0.52842105  -1.55034389
H   -2.33747629  -0.36300484  -3.05357717
O    0.58447097  -1.38223155   3.55270623
H    1.51395417  -1.50166078   3.35769476
H    0.50837407  -1.57644005   4.48690331
O    2.05309735  -3.06170847   0.12189359
H    2.17292446  -2.54419576  -0.67438143
H    2.34007249  -3.94255500  -0.11891030
O   -1.96061212   1.00563581   1.04958249
H   -2.44840767   0.22349627   0.79161915
H   -2.22869343   1.67438047   0.41938820
O    0.16640260   3.38522196  -1.37398963
H    0.28408010   4.07543128  -2.02667252
H   -0.78212735   3.27244405  -1.31231380
O   -2.46426165   2.59384603  -1.18681073
H   -3.31312642   2.98998005  -1.38363117
H   -2.46250396   1.77304194  -1.67926317
O    2.28958798  -1.33690050  -1.94105688
H    1.69102712  -0.59665588  -1.84108368
H    2.74428235  -1.16810932  -2.76628073
O   -2.79286891  -1.42234023  -0.04033722
H   -1.99525635  -1.81127598   0.31851518
H   -3.48866325  -2.03213036   0.20513800
O    2.84461101  -1.15462171   1.93128018
H    3.79441858  -1.05519207   1.99617383
H    2.72053625  -1.88103786   1.32041450
K    0.61934589   0.46511657   1.42638847
