37
Energy:   -674.06917527
O    2.48651023   1.39801253  -1.97976904
H    3.18621245   1.79116787  -2.50137955
H    1.91402743   0.97955429  -2.62272160
O    0.25655461  -2.61167208   2.14638491
H   -0.14575828  -2.96332950   1.35221034
H    0.45243091  -3.38317692   2.67802822
O    0.93542456   2.78994051   2.50900580
H    1.46922304   3.55047939   2.73894414
H    0.80065191   2.86802866   1.56456394
O   -1.60983080  -0.50491258   0.15860506
H   -2.24998814  -0.15259502   0.77691143
H   -1.64833165   0.08890809  -0.59114592
O   -0.87476430   1.19912559   3.82573805
H   -0.36618037   1.97010023   3.57439693
H   -0.90587407   1.23337915   4.78181897
O    2.22039242  -0.70995545  -0.21341983
H    1.92921429  -1.40230343  -0.80680119
H    2.51865588  -0.00794801  -0.79174180
O   -3.01890705   0.65053858   2.16086632
H   -3.88929094   0.85426535   2.50315150
H   -2.41991042   0.89940320   2.86478485
O    0.56516682   2.13713858  -0.12773266
H    1.31359153   2.04485408  -0.71728832
H   -0.19990786   2.02167570  -0.69125809
O   -1.34848406   1.24622408  -1.93608434
H   -1.98204919   1.69415134  -2.49660931
H   -0.74369755   0.82474111  -2.54667195
O    0.60077035  -0.04667281  -3.42011800
H    0.71889852  -0.90414330  -3.01143482
H    0.57380333  -0.23006794  -4.35919779
O   -0.96651778  -3.10330775  -0.29631212
H   -1.72822866  -3.66984312  -0.41905602
H   -1.33524655  -2.22833118  -0.17512243
O    1.02960877  -2.41455083  -2.05340465
H    1.48071173  -3.20378149  -2.35315945
H    0.31891788  -2.73961974  -1.50070174
K    0.57701165   0.02051965   1.75202833
