37
Energy:   -678.21763507
O    0.98203099   1.37135500  -2.89963186
H    0.27442246   0.80656325  -3.21032835
H    1.23600416   1.88257164  -3.66799832
O    1.23684877  -2.03463495   3.01964420
H    1.51094655  -2.49979171   3.81004374
H    0.62655206  -1.36729968   3.33338519
O   -0.04515743   2.91579566   2.12810816
H   -0.09314738   2.67366905   1.20328195
H   -0.47928524   3.76753998   2.17603020
O   -2.37092099  -0.88429869   1.18419395
H   -3.23481475  -1.21398600   1.43163224
H   -2.52317174  -0.39566647   0.37531193
O    2.57906756   2.05461960   2.28946191
H    1.76133251   2.54296652   2.38463816
H    3.23362612   2.59375041   2.73344716
O    2.25696754  -0.65906306  -1.51834570
H    1.76553782  -1.40827056  -1.85511982
H    2.02138829   0.06359771  -2.10014951
O   -0.38193518   0.21445404   2.78935696
H   -0.42353949   1.17063806   2.80395326
H   -1.19569051  -0.05469019   2.36321673
O   -0.00128668   1.61927527  -0.31472712
H   -0.88374574   1.31559496  -0.52750899
H    0.42185093   1.74158939  -1.16456574
O   -2.41668894   0.56971889  -1.14710062
H   -3.14203212   1.10037058  -1.47652119
H   -2.04018175   0.16602362  -1.92908803
O   -1.04968280  -0.48809216  -3.29956168
H   -0.60496129  -1.26551688  -2.96182594
H   -1.42794760  -0.77071220  -4.13219215
O   -0.05966302  -2.24076513   0.54269737
H    0.28290380  -2.56559255   1.37538396
H   -0.92424802  -1.89143657   0.75878572
O    0.33581944  -2.56412581  -2.14970191
H    0.49210953  -3.47688675  -2.39192644
H    0.14847227  -2.59351603  -1.21147533
K    1.74892233  -0.14334196   1.03127223
