37
Energy:   -674.22308902
O    1.35540281   1.97246462  -2.21718506
H    1.39445225   2.18029207  -3.15073460
H    0.49216389   2.27858098  -1.93907862
O   -3.82020563  -2.57986899   1.16451681
H   -4.52419021  -3.22639575   1.21590450
H   -3.59679439  -2.54174515   0.23453517
O   -1.04798884   2.68290189  -1.09385621
H   -1.69639438   3.37448254  -1.22621292
H   -1.56636403   1.90152990  -0.90156260
O   -2.63081046  -0.48447354   2.38193492
H   -3.11634284  -1.25542339   2.08846180
H   -3.10886260  -0.17890246   3.15285925
O    0.51230606   2.00706516   1.11328903
H   -0.04295270   2.43933276   0.46439437
H    1.40150836   2.28163200   0.88931545
O    2.29993853  -1.25961906   2.29516553
H    2.79228482  -1.59521811   3.04429854
H    2.96399655  -0.86916344   1.72700780
O   -2.20495620   0.34392984  -0.26062762
H   -2.51478807  -0.40372498  -0.77175220
H   -2.67812220   0.28010065   0.56899374
O    2.98858247   2.52682657  -0.05397084
H    2.53093722   2.45170923  -0.89131788
H    3.39991780   3.39068580  -0.08194098
O   -2.78024213  -2.12835403  -1.36107634
H   -1.88026365  -2.41924633  -1.21392929
H   -2.99688348  -2.45134568  -2.23570470
O    1.51098842  -0.51970105  -0.99338587
H    2.39792799  -0.47909221  -0.63572544
H    1.42987984   0.27251208  -1.52447118
O    3.86868761  -0.04494237   0.37262181
H    3.70437152   0.89561565   0.30492631
H    4.79615349  -0.14266546   0.15700850
O   -0.18420591  -2.62177946  -0.61382423
H    0.47205684  -2.02837986  -0.97910216
H    0.23846794  -3.48057600  -0.62069205
K   -0.09847746  -0.57687371   1.34270168
