37
Energy:   -675.24048342
O    1.86296514   0.43545524  -1.89284009
H    1.76447317   1.21533199  -1.34665016
H    2.76926941   0.46970862  -2.19889749
O    2.46157738  -1.54233947   2.21621815
H    2.04581014  -1.65799570   1.36182182
H    3.28331397  -2.02889529   2.15107018
O    1.38507641   1.00932482   2.28704115
H    1.42763957   1.39717979   3.16110565
H    1.91452970   0.21446598   2.35115426
O   -1.25539977   2.01714429   0.13710116
H   -0.36725723   2.31229455  -0.06369974
H   -1.63510356   1.80185164  -0.71478261
O    1.46888894   2.43437571  -0.06675742
H    1.86394699   3.29750253   0.05642163
H    1.54030551   2.01329196   0.78987552
O    0.89627998  -1.36043308  -0.03111801
H    1.29927135  -0.75253802  -0.65103203
H    0.40695554  -1.97343515  -0.57977263
O    0.03604472  -1.94245639   3.49040681
H   -0.03339085  -2.54599907   4.23010052
H    0.95921279  -1.97543859   3.23959865
O   -2.14100713   1.97328239   2.78078402
H   -2.01617120   2.35817473   1.91331315
H   -2.76987733   2.55200345   3.21187107
O   -2.28862575   0.97319131  -2.20710012
H   -2.94736655   1.29716438  -2.82137519
H   -1.63035183   0.55306865  -2.76063806
O   -0.24653829  -0.39125717  -3.47764948
H    0.52046598  -0.05547242  -3.01376921
H   -0.01417582  -0.32646562  -4.40395482
O   -2.43418803  -1.12646294  -0.38920825
H   -2.59758055  -0.41884091  -1.01275118
H   -1.99767369  -1.80460705  -0.90477362
O   -0.68853434  -2.64475594  -1.90900627
H   -0.80934424  -3.46586620  -2.38588651
H   -0.56200209  -1.98666516  -2.59248119
K   -1.07866262  -0.26488578   1.73051137
