37
Energy:   -673.91987555
O    3.14766610   0.54656375  -1.25597037
H    3.91094047   1.04108989  -1.55444645
H    2.46852651   1.20852189  -1.12630664
O    0.51446705  -3.17740278   1.72513521
H   -0.25160438  -2.70205279   1.40356281
H    0.18128214  -3.70812599   2.44870452
O   -0.33533446   2.53424275   1.98369060
H   -1.13377198   2.00697876   1.95681939
H   -0.63660811   3.41471492   2.20782179
O   -1.19393513  -1.17114079  -2.19395627
H   -0.26201892  -1.38667483  -2.23013784
H   -1.61370827  -1.82686587  -2.75077490
O    0.77048464   1.64598853  -0.39520087
H    0.08707408   1.70461310  -1.06284225
H    0.41182837   2.11644482   0.35730721
O    1.48238396  -1.59532348  -1.90894157
H    1.94712171  -2.35711508  -1.56264079
H    2.16413372  -0.93548694  -2.03568880
O    1.62935153   0.84179412   2.91201118
H    1.98149308   1.07078081   3.77212354
H    0.97157783   1.51432622   2.73518870
O   -1.22557684   1.56125351  -2.30259959
H   -1.14095772   1.85671778  -3.20911617
H   -1.28043603   0.60767414  -2.36511914
O   -3.28433628   2.15400161  -0.57317152
H   -2.62294638   2.02833785  -1.25361539
H   -3.98194322   2.64727739  -1.00474469
O   -1.02199022  -1.20153680   0.57683006
H   -1.59700338  -0.53855369   0.95898855
H   -1.25612196  -1.21616490  -0.35117866
O   -2.49178010   0.87174435   1.65710538
H   -3.24042837   0.73446280   2.23754607
H   -2.85896595   1.31583955   0.89278486
O    2.64947845  -3.26624244  -0.02316014
H    1.95838794  -3.57416192   0.56319414
H    3.29685573  -3.97131942  -0.02218189
K    1.69929975  -0.73927384   0.77020664
