37
Energy:   -675.16321093
O    1.13335767   0.73816508  -2.86727636
H    1.61320573   0.07622341  -2.36947026
H    1.78738185   1.11817570  -3.45385640
O   -0.31100786  -1.88223333   2.71332600
H    0.53415867  -1.81313328   3.15734239
H   -0.86340207  -2.37091315   3.32347722
O   -2.35574898   2.46247837  -1.72266084
H   -2.89324859   3.13647703  -2.13865583
H   -2.20393431   1.81678029  -2.41277543
O   -0.07383290  -1.63001157  -0.03013610
H   -0.24204400  -2.03873734   0.81891050
H   -0.90158332  -1.71142861  -0.50387901
O    0.64221153   1.16154079   4.05212897
H    0.63356452   1.63371306   4.88472156
H    1.22948999   0.42076629   4.20242532
O    2.17055126  -1.13893528   3.67948905
H    2.94305070  -1.55498984   4.06207901
H    2.48506889  -0.75583847   2.86061949
O   -2.63787083   0.64442390   0.35656033
H   -2.75903235  -0.14131891  -0.17650623
H   -2.73308984   1.37003200  -0.26041462
O    0.17882315   2.11145008  -0.65796146
H   -0.65572791   2.44131318  -0.99104812
H    0.61133235   1.73523588  -1.42453207
O    2.50071072   0.19240862   1.27773015
H    3.07307691   0.95565163   1.19969879
H    2.56289770  -0.24216153   0.42713423
O   -1.56782127   0.36338276  -3.37271886
H   -0.62103566   0.45260198  -3.26377486
H   -1.69372961   0.27883078  -4.31782727
O    2.30687609  -1.07433238  -1.17017692
H    2.79287985  -1.85882427  -1.42435142
H    1.47362660  -1.40608698  -0.83571314
O   -2.42076421  -1.44936698  -1.45480216
H   -2.18041760  -0.89286751  -2.19559476
H   -3.08356084  -2.04381823  -1.80631346
K   -0.26749660   0.70261450   1.57475138
