37
Energy:   -680.40065330
O   -2.37766777  -1.79108952   1.74062451
H   -1.53908615  -1.94444185   2.17593563
H   -3.03469390  -2.02904717   2.39478402
O    2.99878945   2.13038335  -1.59556428
H    3.88426140   2.21380255  -1.94941807
H    2.52486227   1.62046366  -2.25253215
O   -2.50025189  -2.13743766  -0.99269227
H   -2.52943815  -2.08710348  -0.03726227
H   -2.91011651  -2.97688711  -1.20142046
O   -2.85619128   0.38903439  -2.09484617
H   -3.70185955   0.51693126  -2.52463615
H   -2.88402491  -0.51229536  -1.77381376
O    1.61711705   0.94823355   0.50033015
H    2.27493600   1.34997612  -0.06721631
H    1.81355229   0.01189853   0.46996953
O    0.13943411  -1.87237575   2.89890089
H    0.28993305  -0.94519255   3.08305633
H    0.36454837  -2.31879480   3.71515173
O    0.54120575   0.84276395   3.02479756
H    1.04013372   1.01555207   2.22639478
H    0.83333490   1.51489773   3.64053175
O    0.77019222   3.76861826  -1.32511376
H    0.86610045   4.71993476  -1.37017356
H    1.66149577   3.43278837  -1.42013013
O   -1.64919449   0.85460918   1.32535018
H   -1.02658734   0.95720963   2.04511774
H   -2.06100273   0.00511999   1.48350813
O    1.68636122  -1.82789027   0.61452903
H    1.18661880  -1.96600079   1.41914996
H    2.37409768  -2.49309382   0.64200000
O    1.18092271   0.71048901  -3.10021541
H    0.89419004  -0.12395622  -2.72911247
H    1.09142665   0.59578358  -4.04629414
O    0.04184096  -1.18188520  -1.49489079
H    0.59340078  -1.55121251  -0.80524527
H   -0.79191147  -1.64412118  -1.40871289
K   -0.65903112   1.52193491  -1.05860710
