37
Energy:   -679.86071095
O   -1.38826025  -2.27074716  -1.33455842
H   -2.15917573  -1.81056818  -1.00266010
H   -1.71524592  -3.13323492  -1.59034559
O    2.37901856  -0.01510707   2.05933251
H    3.22370089  -0.23062831   2.45467312
H    1.75059376  -0.09613105   2.77679278
O    2.43186638   0.90228524  -2.56466581
H    2.68673019   1.35883208  -3.36643963
H    1.52127151   0.64717336  -2.71287774
O    0.37977177  -2.81239665   2.18948682
H    0.36736371  -3.66718937   2.62007629
H    0.29255993  -2.18215295   2.90462236
O   -0.92321903   2.75852297   0.36426384
H   -0.01724740   2.49731951   0.19927903
H   -0.85440633   3.62908650   0.75620237
O    1.48417186   1.57935426  -0.03067552
H    2.06203433   1.27947558   0.67102213
H    2.01739783   1.51832335  -0.82325179
O   -2.29913365   1.65896008  -1.73546207
H   -1.88390146   2.17717239  -1.04606371
H   -2.70481137   2.30697018  -2.31143112
O   -1.25786097   0.23284663   1.43609922
H   -1.20085807   1.15796460   1.19706101
H   -2.06081093  -0.07467435   1.01546392
O   -0.16897577   0.00569922  -2.37983278
H   -0.61301921  -0.84144627  -2.41727323
H   -0.87587752   0.64285630  -2.27710685
O   -3.26510697  -0.51385745  -0.33238776
H   -3.09344673   0.25462023  -0.87663648
H   -4.21751088  -0.53373696  -0.23877447
O    0.17150290  -0.48343684   3.68131933
H   -0.47174403  -0.16434352   3.04835432
H   -0.17652006  -0.21695041   4.53225814
O    2.95536329  -1.51681938  -1.37152018
H    3.71533955  -2.02155922  -1.66118483
H    2.98262855  -0.71821508  -1.89851130
K    0.73688207  -1.17883367   0.08517548
