37
Energy:   -679.91353009
O    1.97800791   1.26129555  -2.98750738
H    2.54174521   1.21714723  -3.75983051
H    1.17695750   0.80712892  -3.24881710
O    1.47775697  -1.70333582   3.11017453
H    2.14350081  -2.21736892   3.56710665
H    0.65276727  -2.14403268   3.31366929
O    1.01540514   3.27956424  -1.37074241
H    1.46457085   2.68648535  -1.97302096
H    0.97990911   4.11432154  -1.83780998
O   -1.01823922  -1.83984036   0.53199270
H   -1.10775470  -2.28742204   1.37335438
H   -1.81204826  -1.31035836   0.45617809
O    1.62945276   2.70497351   1.25538762
H    2.16609014   3.36943928   1.68751888
H    1.50052211   3.04036901   0.36819058
O    2.10424747  -0.56593663  -0.88711759
H    1.67118718  -1.31608324  -1.29451261
H    2.25298230   0.04594378  -1.60802824
O   -1.50800703   0.32182539   2.92704375
H   -2.14802252   0.36910580   2.21684901
H   -1.79033896   0.99191283   3.54954142
O   -0.78465205   1.24573177  -0.80339932
H   -0.32873260   2.07240866  -0.96143297
H   -0.71693034   0.77202557  -1.63240357
O   -2.90880891   0.22172484   0.56968237
H   -2.31547718   0.72615853   0.01314310
H   -3.78237042   0.42481218   0.23520118
O   -0.39926065  -0.13516134  -3.18047324
H   -0.21515016  -1.00693433  -2.83069183
H   -0.99474178  -0.29149307  -3.91340875
O   -1.18628339  -2.41942927   3.25078849
H   -1.76048079  -2.88361872   3.85993326
H   -1.42186173  -1.49745187   3.35419241
O    0.25480830  -2.42847428  -1.83313018
H    0.34689268  -3.36782712  -1.99240524
H   -0.23219978  -2.37105318  -1.01108530
K    0.80900946   0.16311825   1.31715700
