37
Energy:   -673.68158728
O    2.24569249   1.44234554  -1.95857135
H    1.70615578   0.97403669  -2.59561045
H    2.91300366   1.88144314  -2.48594308
O    0.42629134  -2.71708867   2.20066797
H    0.06524596  -3.12168665   1.41188501
H    0.71455869  -3.45470797   2.73830312
O    0.05423213   3.81621195   1.96682195
H    0.12966284   3.35365348   1.13220724
H    0.08630163   4.74337966   1.73110302
O   -1.67161943  -0.85103674   0.19923344
H   -2.15756759  -0.45316475   0.92157969
H   -1.78349646  -0.24114382  -0.52997572
O   -0.18138728   1.77063617   3.70230097
H   -0.10875023   2.58400892   3.20292089
H    0.00038062   2.02707487   4.60642013
O    2.18935552  -0.68031937  -0.19266346
H    1.96017346  -1.39850273  -0.78251098
H    2.42310992   0.04285838  -0.77456094
O   -2.30253355   0.39406716   2.57989773
H   -3.12799817   0.29753861   3.05478956
H   -1.79250020   1.00855796   3.10762767
O    0.27958138   1.99654246  -0.08915852
H   -0.46411867   1.79307086  -0.65638104
H    1.03903354   1.97253147  -0.67129918
O   -1.57201929   0.95722862  -1.86390532
H   -2.24353221   1.34985774  -2.42170872
H   -0.94102355   0.58024583  -2.47706126
O    0.46655930  -0.16745872  -3.36506534
H    0.67296263  -1.01052088  -2.96148670
H    0.44221543  -0.35054671  -4.30427671
O   -0.74259813  -3.36974139  -0.23159527
H   -1.43622091  -4.01934635  -0.34619318
H   -1.20687169  -2.54039521  -0.11816322
O    1.14570306  -2.48895413  -2.02056409
H    1.66690970  -3.22962940  -2.33036344
H    0.48123358  -2.88283869  -1.45526142
K    0.49599971  -0.07235290   1.77114182
