37
Energy:   -675.74913534
O    1.10069812   0.46856743  -1.09411243
H    0.75459754   1.17290282  -1.64216160
H    0.92975140  -0.33003884  -1.59334894
O    0.59247738  -0.16906389   3.81408324
H    1.24310522   0.52522047   3.70975444
H    0.44476076  -0.21959204   4.75846587
O   -0.93545791   3.05420667  -0.05074183
H   -0.81795301   2.90728705  -0.98927210
H   -1.39092715   3.89421668   0.00549709
O    1.05552417  -1.59233440   1.49754516
H    0.97931762  -1.40956866   2.43403920
H    1.91826594  -1.25490843   1.25660493
O    2.03257766   1.74661891   2.41328174
H    2.61993766   1.23477821   1.85717099
H    2.49473291   2.57297775   2.55390693
O    3.17793987   0.00352267   0.62320876
H    4.04196642  -0.13418161   0.23497236
H    2.61403326   0.22381033  -0.11821860
O   -2.94034957   0.40853756   2.12620812
H   -3.80828288   0.39547757   2.52963477
H   -3.04139291  -0.10204127   1.32288293
O   -0.43887277   2.20256979  -2.62214623
H   -0.33971980   2.67378570  -3.44940441
H   -1.01603771   1.46831856  -2.83187849
O   -2.05666479  -0.78158462  -0.23857670
H   -1.67252705  -1.65826905  -0.24829455
H   -2.12765996  -0.54042689  -1.16217536
O   -1.80773171  -0.17360490  -2.94170337
H   -1.08105384  -0.79564893  -2.97680817
H   -2.42483266  -0.48792599  -3.60247604
O   -0.46233681  -3.05345855  -0.24118214
H   -0.63100179  -3.94598563   0.06077711
H    0.11071626  -2.67817867   0.42740371
O    0.37968882  -1.79969788  -2.52305223
H    0.12145852  -2.37153223  -1.80017296
H    0.90124811  -2.35999889  -3.09774392
K   -0.40022728   0.82754089   1.33273555
