37
Energy:   -680.46181925
O    2.50709804   1.40862572  -0.98767132
H    2.39607980   0.50412750  -1.28057022
H    3.37784409   1.65639085  -1.29855010
O    1.54059096  -1.91396872   2.23030947
H    1.45608548  -2.61707381   1.58631110
H    1.88718594  -2.34464291   3.01173349
O   -0.83899756   3.79510216   1.60629157
H   -0.61414481   3.50072429   0.72367344
H   -1.20742551   4.66963028   1.48101881
O   -1.59049815  -0.54100517   0.24839008
H   -1.88488725   0.00772430   0.97534460
H   -1.77729117  -0.02278751  -0.53441939
O    1.49102566   2.63782452   2.57538630
H    0.76163387   3.22778967   2.38522694
H    2.07672367   3.15175890   3.13131899
O    1.49738729  -1.13743613  -1.15330407
H    0.86277406  -1.25172683  -1.86071875
H    1.60850445  -2.01457645  -0.78654844
O   -1.58954985   1.24062848   2.34715555
H   -1.48851327   2.17697310   2.17603510
H   -1.99701560   1.19735687   3.21221687
O   -0.05173841   2.40086821  -0.61570049
H    0.83608154   2.31984555  -0.96418710
H   -0.60610289   1.97561489  -1.26997221
O   -1.69705329   0.80137829  -2.16326900
H   -2.39084977   1.09833965  -2.75207477
H   -1.32916689   0.03055187  -2.59537786
O   -0.58077751  -1.60356186  -2.91952083
H   -0.94510027  -2.23809600  -2.30237644
H   -0.51860427  -2.08155081  -3.74649900
O   -1.40214607  -3.08946697  -0.73314704
H   -2.19718505  -3.59756477  -0.57195927
H   -1.54968186  -2.26149704  -0.27605752
O    1.18560450  -3.60573403   0.08449850
H    1.46599779  -4.50117094  -0.10472146
H    0.26166214  -3.58582538  -0.16483262
K    0.88806691   0.44183005   1.15388028
