37
Energy:   -674.53541629
O    2.70233565  -1.62988387   0.35819860
H    3.23593104  -2.34097392   0.71296437
H    2.36414966  -1.17561111   1.12988399
O    0.81113086   2.32003671   1.56079741
H    1.50774943   2.93334394   1.79490991
H    1.05153731   2.00502361   0.68947467
O   -1.82749403  -0.36216934  -2.05145644
H   -1.71325981   0.57739732  -2.19427405
H   -1.37558557  -0.77358744  -2.78816923
O   -1.17254171   2.32347301  -2.02214464
H   -1.42433601   3.03691651  -2.60851470
H   -1.47039410   2.60682826  -1.15772252
O    0.62135236  -1.77977585  -2.89769083
H    1.47429811  -1.34668089  -2.86386575
H    0.71161771  -2.43382425  -3.59073103
O   -1.50249509  -1.25942011   3.10901466
H   -2.06641965  -1.16438527   3.87660134
H   -1.95794945  -0.78144161   2.41595642
O   -1.75014762   2.73570940   0.66149064
H   -0.89148908   2.72031168   1.08422017
H   -2.23752967   3.41148593   1.13267708
O   -0.85492925  -3.31531121   1.38128880
H   -1.08624939  -4.21554467   1.60998634
H   -1.13260588  -2.79692191   2.13653715
O   -2.24407973   0.02308350   0.77568390
H   -2.16652698   0.97670753   0.80429547
H   -2.65165402  -0.15925502  -0.07099651
O    0.97087973  -0.38499359   2.13142710
H    0.25916371  -0.66306726   2.70794006
H    0.92934899   0.57123591   2.14292449
O    2.93579039  -0.44938354  -2.14548339
H    3.07479264  -0.86847217  -1.29620432
H    3.81714084  -0.31495947  -2.49388460
O    1.04799048   1.13091456  -0.87918737
H    0.43429995   1.58091190  -1.45980615
H    1.75069232   0.83325001  -1.45697434
K   -0.03534342  -1.37309772  -0.25865768
