19
Energy:   -380.44165161
Na  -1.62992767   0.34554379   0.56724779
O    0.34868129  -0.74325093   1.03820081
H    0.77023485  -1.14315966   1.79885675
H    1.05740517  -0.62447606   0.40587587
O   -3.04828205  -1.13087221  -0.57905651
H   -3.86337134  -0.98555084  -1.05941367
H   -2.83765387  -2.05121238  -0.73666864
O   -0.54608821   2.03001667  -0.57551507
H    0.29883260   1.85844563  -0.99133241
H   -0.70600459   2.96069599  -0.73202261
O   -2.91763726   0.84584878   2.45272762
H   -3.45487489   0.19201164   2.90005813
H   -2.98531463   1.62772424   3.00074440
C    4.74024385  -0.82768708  -1.82157493
H    5.49815595  -0.47544041  -1.15344941
H    4.88263318  -0.38748861  -2.78638044
H    4.80319745  -1.89275014  -1.90267124
C    3.35387420  -0.43532038  -1.27785850
N    2.32165898  -0.14318553  -0.87303689
