19
Energy:   -381.46614785
Na  -0.19137486   0.17000422  -0.15698879
O   -0.15459654  -1.21768063   3.52798138
H   -0.77333928  -1.09879178   4.24857468
H    0.43740072  -1.90607990   3.83109445
O    0.80209940   0.75329968   1.82757968
H    1.41539448   1.33943639   2.27091335
H    0.52767104   0.13577105   2.50550247
O   -2.14899429   1.37331955  -0.17160285
H   -2.33598523   2.29725320  -0.00543170
H   -2.96973917   1.02037638  -0.51517352
O   -0.74759052  -1.98607016   0.48208255
H   -0.79304392  -2.84466689   0.06139561
H   -0.94520811  -2.15906049   1.40254628
C    1.92620904   1.03427809  -4.67118274
H    1.22818646   1.62184469  -5.23013727
H    2.18958098   0.16281161  -5.23339309
H    2.80515056   1.61300281  -4.47769219
C    1.28676114   0.60994998  -3.33602281
N    0.81066311   0.29401841  -2.34193556
