19
Energy:   -381.37330495
Na  -0.65974186  -0.00143126  -0.35148059
O    0.15479463  -2.08429788   0.26860647
H    0.67324901  -2.75346419  -0.17821940
H   -0.00282140  -2.44557805   1.14088262
O   -0.76183430   0.76828517   1.81975821
H   -0.47001289   0.14602864   2.48599309
H   -0.92772271   1.57748185   2.30340439
O   -2.79977651  -0.04124602  -1.32116915
H   -3.08261477  -0.59407528  -2.04960184
H   -3.60451148   0.36951694  -1.00508805
O    0.19672367  -1.20019899   3.55104515
H   -0.23881837  -1.58777486   4.31020253
H    1.09504408  -1.04518454   3.84297462
C    2.60916236   2.18340199  -3.55847734
H    2.25459741   2.10954868  -4.56531872
H    3.57740597   1.73356511  -3.48741268
H    2.67314530   3.21388159  -3.27755553
C    1.63383450   1.45400277  -2.61597410
N    0.90765857   0.91093191  -1.91423760
