19
Energy:   -380.72182556
Na   0.37698039   0.46135843  -0.09147544
O    0.73169155  -1.33657989  -1.48167195
H    0.02512568  -1.47824119  -2.11169464
H    1.33483544  -2.06495930  -1.62970147
O    2.26734911   1.79208758  -0.29374728
H    2.96224562   1.64411399  -0.93519448
H    2.51566627   2.60534754   0.14577367
O   -1.36011136  -1.57813719  -3.25052605
H   -2.12158302  -2.14835817  -3.14450340
H   -1.36591356  -1.33990607  -4.17758814
O   -1.65167472   1.19519297  -0.93702182
H   -2.30944427   1.76271128  -0.53515861
H   -2.02123591   0.96588050  -1.78970708
C    0.11257097  -0.17012418   4.93339692
H    1.11116512  -0.17752968   5.31765603
H   -0.35389212  -1.11190401   5.13429996
H   -0.44519173   0.61191893   5.40478682
C    0.14946145   0.07043611   3.41274909
N    0.17692808   0.24954418   2.28055765
