19
Energy:   -382.17818310
Na  -0.57798294   0.09737038  -0.14053277
O    0.78952429   0.57349958   3.67278313
H    0.14635463   0.80993548   4.34111142
H    1.62110054   0.52978830   4.14480232
O    0.48602585   1.99331022   0.72843427
H    0.65020913   2.05911182   1.66914988
H    0.91774175   2.76175455   0.35514276
O   -2.79735686   0.51796024  -0.66660327
H   -3.37983580   1.04028550  -0.11512666
H   -3.38147088   0.08153253  -1.28674319
O    0.08934493  -1.15479461   1.63733124
H    0.11899092  -2.08044061   1.87926602
H    0.35851210  -0.69079979   2.43010466
C    1.25814382  -1.59379217  -4.52083833
H    2.12916677  -1.02643675  -4.77446606
H    0.51679629  -1.46865206  -5.28218115
H    1.51722564  -2.62895409  -4.44199987
C    0.69862300  -1.10060786  -3.17350553
N    0.28203431  -0.73340973  -2.17035501
