19
Energy:   -381.52360056
Na   0.03580291   0.28678799  -0.07234823
O   -0.20423446  -0.96022983  -1.98934335
H   -1.04103148  -1.42108990  -2.04943165
H    0.24901648  -1.17858728  -2.80366236
O   -2.67859859  -2.25077663  -1.93659686
H   -3.47795335  -1.97806790  -2.38703416
H   -2.70658371  -3.20736865  -1.95610059
O    0.01992903   2.60855144  -0.59566572
H   -0.10602955   3.38910740  -0.05613010
H    0.06601838   2.94125537  -1.49200031
O   -1.86255603  -0.72697812   0.84129696
H   -2.32650029  -1.44847446   0.41652573
H   -2.35703073  -0.56344745   1.64440613
C    3.98253033   1.07377986   3.02624028
H    4.88328924   0.93025083   2.46683615
H    3.95763081   0.38535976   3.84499352
H    3.95140446   2.07539067   3.40134836
C    2.76674335   0.82959346   2.11309460
N    1.86153469   0.64778558   1.43321614
