19
Energy:   -380.43748656
Na   0.40832167  -0.74890701   1.48205190
O    0.56769188   1.58868100   1.30722958
H    0.59236944   2.03145712   0.45895358
H    0.43550153   2.29299284   1.94181795
O    0.85418801  -1.09825062  -0.75605806
H    1.20633749  -1.72295673  -1.39006505
H    0.49668698  -0.38937765  -1.29077665
O   -1.71098775  -1.34547282   2.25463016
H   -2.18808877  -1.04620138   3.02860889
H   -2.33144108  -1.91009979   1.79368992
O    1.98265309  -1.91419993   2.72219680
H    2.92250442  -1.96025667   2.54672571
H    1.84010104  -2.54023414   3.43212068
C   -1.31764771   2.09531951  -4.28480676
H   -0.53150815   2.19374532  -5.00397095
H   -1.77311386   3.04965327  -4.12141535
H   -2.05148949   1.40778810  -4.65042390
C   -0.73738561   1.56966304  -2.95869170
N   -0.30535410   1.17828790  -1.97133875
