19
Energy:   -380.98108261
Na   0.22000771  -0.44839577   0.02922016
O   -1.21430505  -0.32749554  -1.87949207
H   -1.12777665  -0.06952336  -2.79720392
H   -2.15883180  -0.36828634  -1.72970161
O   -1.49456326   0.29767172   1.37077374
H   -2.35961433   0.20190000   0.97234399
H   -1.65988505   0.75149632   2.19717787
O    1.13805831  -2.54919189   0.54093772
H    0.76265601  -3.19465202   1.13984186
H    1.91848698  -2.97564470   0.18695899
O   -3.87493006  -0.10229603  -0.02317329
H   -4.36069787   0.52232320  -0.56179403
H   -4.54384629  -0.69557879   0.31858464
C    4.53252078   2.23355488   0.05888166
H    4.59413979   2.74947754   0.99425703
H    4.52762909   2.94438337  -0.74086706
H    5.37625208   1.58399581  -0.04642556
C    3.23653118   1.40282824   0.01524426
N    2.27160802   0.78431450  -0.01724576
