19
Energy:   -380.46676739
Na   0.07796382   0.53545763  -0.19681717
O   -1.24788540  -0.76870319  -1.59284078
H   -1.06695334  -1.20581900  -2.42496169
H   -2.16068098  -0.98451192  -1.40188875
O   -0.06498696   2.76285233  -0.86699374
H   -0.18589169   3.52769582  -0.30429637
H    0.03853068   3.12597938  -1.74657016
O   -3.52527189  -0.70760367   1.59326152
H   -4.29832964  -0.14860969   1.67161515
H   -3.83476763  -1.58047701   1.83520439
O   -0.92797142   0.14995457   1.84132522
H   -1.83372061  -0.15684760   1.79982009
H   -0.73747351   0.20965877   2.77747574
C    4.80315268  -1.21111068  -0.69677934
H    5.48858004  -0.40217630  -0.55285335
H    4.96284942  -1.64664597  -1.66099149
H    4.96114957  -1.95132365   0.05954125
C    3.35940576  -0.68317198  -0.60471659
N    2.28447055  -0.29009761  -0.53617168
