19
Energy:   -390.49967718
Na  -0.45251266   0.37981972  -0.45030885
O   -1.75031499   1.41167041  -2.06506009
H   -2.40903954   2.09889377  -1.96487094
H   -1.73497112   1.22907934  -3.00455831
O    0.75027277   1.69899914   1.01947784
H    1.42964119   2.37218096   1.05842203
H    0.52949170   1.52760875   1.93496290
O   -1.49483573  -0.50983789   1.41228919
H   -1.16564106  -0.14014112   2.23154923
H   -2.15129060  -1.15089445   1.68495259
O   -0.22729911   0.85317839   3.49865843
H   -0.72207705   1.45497835   4.05477303
H    0.34351607   0.38077257   4.10465728
C    2.26201607  -2.87175387  -3.22103201
H    3.29982664  -2.64671435  -3.08985797
H    2.01055807  -2.80305920  -4.25879355
H    2.06514978  -3.86361476  -2.87123961
C    1.41359501  -1.86697150  -2.41966188
N    0.78190696  -1.11886536  -1.82300539
