19
Energy:   -381.12203538
Na   0.27032336   0.23380159  -0.44849888
O    0.80857509  -0.36246725   1.70752346
H    1.17039411  -1.07747176   2.23105702
H    0.66915472   0.34729682   2.33444353
O    2.38474927   0.47804744  -1.37991169
H    3.19076999   0.48466242  -0.86365722
H    2.67660343   0.60807723  -2.28221167
O   -1.06943542   2.06336153   0.14670270
H   -0.95564243   2.57957755   0.94470272
H   -1.85037867   2.43063555  -0.26738580
O    0.34510837   1.77485217   3.33251583
H   -0.38916099   1.80223345   3.94597375
H    1.03441691   2.28275356   3.76044312
C   -2.04338057  -3.35777554  -3.13338139
H   -3.09279950  -3.33633904  -2.92563019
H   -1.63592381  -4.29469658  -2.81548669
H   -1.88545482  -3.23855453  -4.18492545
C   -1.34672872  -2.21174926  -2.37647984
N   -0.82803975  -1.35848059  -1.81293224
