19
Energy:   -380.55188222
Na   0.32814771  -0.40520586   0.10072122
O   -1.74188363  -1.12323255  -0.70737157
H   -2.55151113  -1.08202740  -0.19841450
H   -2.02080094  -1.40086092  -1.57993073
O   -0.29982721   0.78683017   1.97126630
H    0.10347955   1.36701000   2.61699602
H   -1.22632092   0.76807562   2.21103602
O    1.68470315  -2.08426859   0.95309883
H    1.90124509  -2.15531646   1.88277277
H    2.10268015  -2.84546692   0.55047720
O   -3.00795873   0.59506093   2.46490823
H   -3.53887900   1.39151796   2.46833056
H   -3.46724790  -0.00206192   3.05544155
C    2.81720726   1.54806216  -3.85630656
H    2.27406938   2.38810779  -4.23607592
H    2.91426893   0.80933594  -4.62426600
H    3.78945175   1.86483041  -3.54119133
C    2.05991690   0.94632739  -2.65796330
N    1.49607981   0.49830850  -1.76574227
