19
Energy:   -380.73970025
Na  -0.06805276   0.52224796  -0.19135084
O    0.92530636   0.90372119   1.90898699
H    0.54164484   0.55007886   2.71146614
H    1.68034527   1.41088160   2.20720907
O   -1.28516831   2.35027641  -0.95493727
H   -2.11776218   2.34119133  -1.42709906
H   -1.06662292   3.27846472  -0.87165323
O   -1.67774601  -0.93408879   0.59064551
H   -1.65259338  -1.10259387   1.53256123
H   -2.25449097  -1.61314988   0.24068389
O   -1.55744574  -1.30942980   3.32023023
H   -1.17897907  -2.05761659   3.78197837
H   -2.38370192  -1.14085072   3.77312499
C    2.94944248  -0.82621965  -4.03406199
H    3.18508843   0.04882527  -4.60297988
H    2.43668490  -1.52916698  -4.65683305
H    3.85274853  -1.26715328  -3.66729937
C    2.04818903  -0.43929602  -2.84678261
N    1.37716487  -0.15121378  -1.96279915
