19
Energy:   -382.04313597
Na  -0.09749689  -0.46407084   0.03325137
O    1.26308994   1.03223285   1.14107550
H    0.87275528   1.41388231   1.92734161
H    2.02986438   1.57744926   0.96492818
O    0.71066428  -2.62156405   0.35747507
H    1.36714710  -2.83541050   1.02044706
H    0.59713648  -3.43252917  -0.13818495
O   -2.01001188   0.11891465   1.24058475
H   -1.92783822   0.44234145   2.13773269
H   -2.95254956   0.01903989   1.10687011
O   -0.24042306   1.94939249   3.29356520
H    0.07751932   1.72357949   4.16772364
H   -0.57748835   2.84074388   3.38362932
C    0.21982182  -0.37303254  -5.02343251
H   -0.05341271   0.60462674  -5.36170075
H   -0.45176045  -1.09490129  -5.43910287
H    1.21878177  -0.59287226  -5.33751628
C    0.14189603  -0.42477490  -3.48627595
N    0.08387674  -0.46329945  -2.34179302
