19
Energy:   -380.99769068
Na   0.76036633   0.25534494   0.47820915
O    2.89954880   1.07852896   0.90693546
H    3.23988418   1.97314925   0.91456547
H    3.67953202   0.52540238   0.86324326
O   -2.98483299   1.83007042  -0.06157411
H   -3.78690227   1.33986291  -0.24216566
H   -3.26162429   2.74626458  -0.04719748
O   -0.60153236   0.98512631   2.21438241
H   -1.51670942   1.21901364   2.05952919
H   -0.40119065   1.35589604   3.07381528
O   -0.49698062   1.26576501  -1.13185046
H   -1.38004374   1.49972002  -0.84602460
H   -0.44598337   1.57945816  -2.03475008
C    0.91524303  -4.30081602  -1.60106909
H   -0.07950486  -4.68766109  -1.52538742
H    1.60295982  -4.99852720  -1.17078568
H    1.16074325  -4.14709138  -2.63111640
C    1.00380165  -2.96111196  -0.84678109
N    1.06973757  -1.96364139  -0.28517938
