7
Energy:   -125.85683166
O    0.30219339  -0.32102693  -1.40156917
H    0.11724609   0.56352808  -1.08599228
H    0.22308989  -0.87445849  -0.62459555
C   -0.30748504   0.27708146   1.42296699
O    0.86379235   0.92626833   1.13378874
O   -0.15660267  -1.06391815   1.18621113
O   -1.31062570   0.77116482   0.63089966
