7
Energy:   -128.95006940
O    0.20056542  -1.06500807   1.07852533
H   -0.63719631  -1.23144981   0.64645557
H    0.52171053  -0.25783619   0.67656612
C   -0.03905405   1.18414269  -1.00834473
O   -1.22926376   1.09480628  -0.33575405
O    0.05172984   0.15971576  -1.91355550
O    0.99707608   1.09861622  -0.11565230
