7
Energy:   -124.77376700
O   -0.58241282   0.03265464   1.34087172
H   -0.27399867  -0.77471549   0.92945221
H   -0.40935847   0.71421898   0.69144574
C    0.56737188   0.02702925  -1.36141633
O   -0.29679992  -1.03279779  -1.27815694
O    1.60980656  -0.16469264  -0.49327380
O   -0.09382951   1.18175307  -1.03399331
