7
Energy:   -127.36469377
O    0.77480721   1.08659773   0.80549508
H    0.66399381   0.13884226   0.72991866
H    0.11289373   1.45312266   0.21918297
C   -0.72759901  -1.21206633  -0.68589319
O   -1.60286298  -0.25868382  -0.23652347
O    0.21842405  -1.45264826   0.27549096
O   -0.11554566  -0.76735746  -1.82843638
