7
Energy:   -126.94289057
O   -1.31785198   0.50915815   0.69620547
H   -0.62989346   0.67968323   0.05288120
H   -1.01645910  -0.26594885   1.17012879
C    1.35439002  -0.30734307  -0.77816265
O    1.43425250  -0.74494100   0.51763379
O    0.72461919   0.90896091  -0.81120982
O    0.64214590  -1.21133373  -1.52199689
