7
Energy:   -125.79091886
O    1.49252667   0.33196488   0.26547752
H    0.99056520   0.01265819  -0.48439565
H    0.83884274   0.46849454   0.95125359
C   -1.44552701  -0.25908068  -0.44523159
O   -1.65849063  -1.17902438   0.54739546
O   -0.37489252  -0.64838025  -1.20634027
O   -1.18761457   0.96480048   0.11456861
