7
Energy:   -126.88320869
O    0.38470362  -1.15120111  -0.97946471
H    0.63139906  -0.25531756  -0.74975650
H   -0.35377898  -1.35170422  -0.40442226
C   -0.33874488   1.26390278   0.86836099
O   -1.44194688   0.60230742   0.39698501
O    0.57247820   1.41106924  -0.14411781
O    0.22414093   0.54312747   1.88886220
