7
Energy:   -126.59793736
O   -1.00442955  -1.05700506   0.62245328
H   -0.19731044  -1.45223834   0.29293661
H   -0.86165592  -0.11424242   0.53851188
C    0.94936368   1.16951137  -0.47676131
O    1.55662341   0.04483469   0.01648951
O   -0.19531933   1.41901675   0.23355316
O    0.63555999   0.97703772  -1.79670879
