7
Energy:   -125.73453262
O    0.49421463  -0.56713007  -1.42258687
H    0.70172576  -0.12166070  -0.60116857
H   -0.46216327  -0.60181224  -1.44183023
C   -0.32183506   0.71247973   1.41465409
O   -1.33159438   0.73643369   0.48903500
O    0.88516710   0.82656469   0.77650897
O   -0.36386541  -0.47033076   2.10528640
