7
Energy:   -128.11236370
O   -0.40635732  -0.19520017   1.48436313
H    0.54967121  -0.19701850   1.43705577
H   -0.69172897  -0.15481131   0.57158517
C    0.20831760   0.12930619  -1.55165252
O    1.13462342  -0.70101543  -0.97764738
O    0.55262173   1.43329693  -1.31048534
O   -1.02664254  -0.12429503  -1.01467946
