7
Energy:   -130.40197397
O    0.40070524   0.13187965  -1.44897949
H    0.64442357   0.33483747  -0.54585084
H   -0.44851026  -0.30375520  -1.37626656
C   -0.21527399  -0.09790910   1.51460879
O   -1.26566641   0.71374290   1.17570587
O    0.95294604   0.45223413   1.05667520
O   -0.39181850  -1.33312404   0.94816702
