7
Energy:   -128.95112161
O    0.71872317  -0.41763449  -1.26923406
H    0.68390111   0.24371175  -0.57811870
H    0.07412332  -1.07433941  -1.00567851
C   -0.57350007   0.52680660   1.32097830
O   -0.40563508  -0.83288483   1.32532915
O   -1.66950574   0.84901050   0.56463513
O    0.54014434   1.12237022   0.78911336
