7
Energy:   -126.72356740
O   -0.55496861   0.72778949   1.20917361
H   -0.86102929   0.03992594   0.61807088
H    0.30376050   0.97467693   0.86586216
C    0.46084681  -0.75752712  -1.24536410
O    0.80970255   0.56458109  -1.33073356
O   -0.87220718  -0.85945623  -0.94590410
O    1.19811560  -1.36132934  -0.26066221
