7
Energy:   -123.78588769
O   -1.45685526   0.62680554  -0.55217880
H   -0.63392325   0.80255161  -1.00838936
H   -1.22074958   0.00796820   0.13885398
C    1.28009843  -0.39602191   0.78814421
O    2.13428163  -1.32192761   0.24960167
O    0.04595472  -0.96336947   0.96732246
O    1.17247897   0.67390913  -0.06123546
