7
Energy:   -125.58015751
O   -1.28833012  -0.26699874  -0.95837163
H   -0.35175099  -0.07551134  -0.90954580
H   -1.55360998  -0.40113497  -0.04850026
C    1.40820644   0.12062307   0.75749265
O    0.43971315  -0.71097079   1.25491680
O    1.29203941   1.35573512   1.33895826
O    1.25612781   0.23791473  -0.59930319
