7
Energy:   -124.96594051
O   -0.69490940   0.23279275   1.27035799
H   -0.15640401   0.82842783   0.74933722
H   -0.66024374  -0.59837996   0.79687930
C    0.72785843  -0.18315073  -1.27138433
O    1.08342253  -1.18687431  -0.40936837
O    0.91211726   1.02947066  -0.66089532
O   -0.59030447  -0.32492734  -1.61797655
