7
Energy:   -126.42068150
O    0.94227424   0.89173596   0.92098462
H    0.94587505   1.27486958   0.04381445
H    0.32842704   0.15976510   0.86063461
C   -1.05121547  -0.97875719  -0.72004002
O   -1.31851525   0.34668566  -0.94074446
O   -0.67188088  -1.15687507   0.58436716
O   -0.03912007  -1.38450462  -1.54998709
