7
Energy:   -133.07757341
O   -0.39837516   0.17090716   1.47186775
H   -0.67950888  -0.18016447   0.62691545
H    0.52364428   0.39410796   1.34422212
C    0.29393434  -0.31583028  -1.47830503
O    0.02933056   0.98185072  -1.82897188
O   -0.80791576  -0.85832888  -0.87108150
O    1.35522469  -0.34708037  -0.61201038
