7
Energy:   -124.66764717
O   -0.17735586  -0.10683088  -1.48594818
H   -0.87941093   0.21776179  -0.92204205
H    0.49005144  -0.42611867  -0.87861413
C    0.17689647   0.12815649   1.49734101
O    1.21817026   0.87971049   1.01997966
O    0.35365028  -1.18056589   1.13250869
O   -1.00021047   0.59403847   0.97279030
