7
Energy:   -125.02439741
O    1.26850418  -0.90555444   0.18570719
H    0.68697614  -0.88687326   0.94577823
H    0.80467351  -0.40265351  -0.48375798
C   -1.28862807   0.85352420  -0.30699479
O   -1.37224661   0.02350790   0.77976152
O   -0.67758430   0.19281713  -1.34004389
O   -0.55638051   1.96401761   0.02224388
