7
Energy:   -131.77890261
O   -0.35275638   0.09227600  -1.57787160
H    0.07978792   0.90671061  -1.32129113
H   -0.33874739  -0.44644415  -0.78678614
C    0.47534817  -0.32541144   1.45981939
O   -0.45065347   0.19157009   2.32711948
O    1.01421616   0.68715535   0.71053402
O   -0.13160283  -1.23342722   0.63223372
