7
Energy:   -127.19822342
O    0.35064191  -1.03269669  -1.05506389
H    0.63151658  -0.23058719  -0.61465315
H   -0.55123558  -1.16394086  -0.76244844
C   -0.20592273   1.15684808   0.98351495
O   -1.36817849   0.82176422   0.34021196
O    0.83114304   1.14473654   0.08827941
O    0.04088922   0.25069373   1.98138686
