7
Energy:   -126.71168574
O   -0.15244281   0.48373137   1.46427093
H    0.43765085   0.63010104   0.72494879
H   -0.73038541  -0.22192513   1.17398986
C    0.27215625  -0.41079380  -1.48217811
O    0.00276326  -1.54893252  -0.76871750
O    1.20082912   0.33989968  -0.81051987
O   -0.87968392   0.31578345  -1.63426339
