7
Energy:   -124.76582582
O   -0.23136587   0.20836874   1.42975069
H    0.55563459   0.35334354   0.90454175
H   -0.87369508  -0.13642255   0.80945721
C    0.23406135  -0.23450195  -1.43638193
O    0.39364044   1.11699379  -1.27841943
O   -1.02637653  -0.59492904  -1.03827711
O    1.16094731  -0.89564235  -0.67378375
