7
Energy:   -128.07642352
O    1.49133372  -0.34911076   0.26007457
H    0.89615640  -0.75101219   0.89290239
H    0.92547101   0.18943873  -0.29309421
C   -1.44904864   0.44429642  -0.41742201
O   -1.44732586   0.64398276   0.93796752
O   -1.40635403  -0.89952696  -0.68088867
O   -0.35293918   1.05355016  -0.96981148
