7
Energy:   -125.14617359
O    0.23091271  -0.06190230  -1.42690503
H    0.39129066   0.64205649  -0.79845234
H   -0.08566613  -0.79154525  -0.89433498
C   -0.20254533   0.06210014   1.44166167
O   -1.20531093   0.85834157   0.95440493
O    1.01042810   0.56504881   1.05071810
O   -0.35002620  -1.20890928   0.95118776
