7
Energy:   -128.40457777
O    1.36037701  -0.41737934   0.56431785
H    0.43108843  -0.63930798   0.62264678
H    1.40855159   0.23145978  -0.13776394
C   -1.43250686   0.28998727  -0.50334798
O   -0.54978914   0.27903499  -1.55103490
O   -1.24815823   1.42797947   0.23698175
O   -1.21714658  -0.80904453   0.28629071
