7
Energy:   -126.40347987
O    0.24661059   1.55995344  -0.06606971
H   -0.28378926   1.18692244  -0.77016894
H    0.52142593   0.80442958   0.45344167
C   -0.06431519  -1.56524239   0.09477425
O   -0.11067615  -1.00677338  -1.15539431
O   -1.31727511  -1.54887190   0.64877987
O    0.79412650  -0.84590258   0.88433635
