7
Energy:   -127.88070596
O   -0.58700924  -1.41264705  -0.25596528
H    0.21007583  -0.88480906  -0.20827572
H   -1.27526461  -0.83894275   0.08078355
C    0.77739309   1.35768626   0.20350002
O    0.02278031   1.15153209   1.32823039
O   -0.04359682   1.68518043  -0.84331511
O    1.46869916   0.21363643  -0.09820531
