7
Energy:   -126.24874829
O    1.28084390   0.42474028   0.85479923
H    0.45683668  -0.05694867   0.78255166
H    1.38484566   0.85129955   0.00423314
C   -1.33301437  -0.61352271  -0.69698458
O   -0.24803300  -0.79266301  -1.51410303
O   -1.74110393   0.69284675  -0.75991720
O   -0.98904945  -0.92343519   0.59275284
