7
Energy:   -124.16252394
O    1.17780086  -0.20024917   0.82121499
H    1.25750876  -0.95522797   0.23821798
H    0.36434440   0.22624072   0.55172137
C   -1.25054068   0.32411560  -0.77623327
O   -0.36577542   1.32472485  -1.08107737
O   -1.60425666   0.41421028   0.54432220
O   -0.66295346  -0.89151460  -1.01025180
