7
Energy:   -124.29426451
O   -1.66161809  -0.12833049  -0.50529282
H   -0.72083074  -0.03954978  -0.65783459
H   -1.73231954  -0.38852556   0.41314698
C    1.32549513   0.50152177   0.34938580
O    2.69078905   0.39401054   0.38642937
O    0.77754197  -0.31002809   1.30763052
O    0.87117882   0.12117521  -0.88621663
