7
Energy:   -127.59684620
O   -0.39998014  -1.08447981   1.06984244
H   -1.17208263  -0.85581385   0.55234707
H    0.31426717  -0.59166038   0.66584783
C    0.61659130   1.02568831  -1.04731294
O   -0.26535810   0.17014994  -1.65326486
O    1.39227792   0.32802573  -0.15923863
O   -0.07832922   2.00021104  -0.38010150
