46
Energy:   -672.80733593
O    2.69439545  -1.85398671   0.42053133
H    3.50253484  -2.14479838   0.84310812
H    2.98151436  -1.21728230  -0.23399298
O    0.85664837  -0.26696960   1.73582249
H    1.33573585   0.54547027   1.89906619
H    1.51008171  -0.86075846   1.36613138
O    0.92787252  -0.98733075  -2.87029186
H    0.84300344  -1.79474305  -2.36322731
H    0.77289410  -1.25535206  -3.77603913
O    0.83532702  -3.12407978  -1.14217202
H    1.50885768  -2.79482400  -0.54704268
H    1.07091169  -4.04032379  -1.28787248
O    3.20056650  -0.09468298  -1.58212643
H    2.44749903  -0.30862321  -2.13289935
H    3.90226364   0.10464910  -2.20190035
O    1.96454990   2.30610706   2.02855182
H    2.59732859   2.70717845   2.64268221
C    2.44492497   2.52487737   0.71177047
H    1.72045016   2.06685348   0.03292177
H    3.42472494   2.05496983   0.53300733
H    2.52102144   3.59403976   0.45902859
O   -3.63524418   0.30665831   1.22408900
H   -4.33145556   0.54265305   1.85497685
C   -4.25986576   0.00593764  -0.01363017
H   -3.46145794  -0.25772165  -0.71256788
H   -4.81015406   0.86338662  -0.43165093
H   -4.94980560  -0.84965909   0.05503268
O   -1.38685572  -2.15937854   0.32045256
H   -0.70804352  -2.61678065  -0.19764066
C   -2.19475168  -3.14773451   0.93931473
H   -2.95391516  -2.61532134   1.51870425
H   -1.62644277  -3.79013963   1.63005199
H   -2.71110140  -3.79222099   0.21075624
O   -0.73280285   0.62855694  -1.25549092
H   -0.20551133   0.14547474  -1.90895746
C   -1.05017757   1.89521980  -1.80990256
H   -1.64410801   2.42606693  -1.06094784
H   -1.65055690   1.81836667  -2.72991103
H   -0.15608842   2.50006303  -2.02795436
O   -0.88598802   2.29340178   1.72804300
H    0.04492687   2.49696911   1.90234472
C   -1.65624678   3.40847818   2.14737560
H   -2.70195195   3.16233416   1.94390813
H   -1.40837364   4.32841068   1.59505284
H   -1.55705998   3.61276106   3.22496913
Na  -1.30916507   0.10328892   0.95622931
