46
Energy:   -671.59317001
O    0.66882665  -1.92305075  -3.02768617
H    0.84386019  -2.11308613  -3.94935946
H    0.55367446  -0.97332636  -2.99613592
O    2.30360810  -1.89164731  -0.80379524
H    2.84568466  -2.67728023  -0.73192186
H    1.79866006  -2.02110376  -1.60660302
O   -1.64781694   0.33790524  -0.74375277
H   -1.85396259  -0.56057261  -1.00157709
H   -0.98529416   0.62224801  -1.37339124
O    2.91781665   0.78721796  -0.95927864
H    3.84893771   0.94263451  -1.11768037
H    2.84484118  -0.16304817  -0.87039269
O    0.04788991  -1.68769323   0.82524343
H    0.90598583  -1.77241169   0.40964021
H   -0.55717514  -2.10851648   0.21447676
O   -1.56257480  -2.39352853  -1.34869534
H   -0.92757612  -2.46939685  -2.07632433
C   -2.56859659  -3.37298391  -1.55147867
H   -3.27535289  -3.27357039  -0.72316853
H   -2.17089937  -4.39985846  -1.53952442
H   -3.12209976  -3.22564698  -2.49206540
O    0.53165854   0.79948317  -2.45930056
H    1.37912548   0.99491095  -2.03264959
C    0.22817413   1.87900282  -3.32824724
H   -0.72920825   1.64257784  -3.80048384
H    0.97854239   2.00836262  -4.12385446
H    0.11860341   2.83628174  -2.79496620
O   -0.87758137  -0.15618447   3.76387892
H   -1.47992594  -0.38556816   4.48705761
C    0.42543276  -0.57162750   4.14083389
H    1.09109701  -0.30571839   3.31520162
H    0.49579964  -1.65913918   4.29940308
H    0.78768524  -0.06396985   5.04848701
O   -2.40650643   2.13047535   1.75154954
H   -3.02937655   2.43964674   1.07710967
C   -2.62947629   2.89445584   2.92592258
H   -1.91974806   2.53327631   3.67513576
H   -3.64619542   2.76706591   3.32944625
H   -2.44802484   3.97003849   2.77434866
O    1.13486645   1.50690514   1.08777539
H    1.85520185   1.37128670   0.45441308
C    1.36746412   2.74176070   1.74623103
H    0.54702318   2.87881740   2.45586285
H    1.36758937   3.59893508   1.05483432
H    2.31267430   2.75095529   2.31127130
Na  -0.86674035   0.37692926   1.47488695
