46
Energy:   -672.86287286
O    3.10558147  -0.46240394   0.64952578
H    2.81340963  -1.25183063   0.19381428
H    3.99136120  -0.67071705   0.94656412
O   -0.34890666   2.39783492   2.24316100
H    0.02371774   1.59907600   2.61648004
H   -0.37242205   3.01589031   2.97369944
O   -0.30307809  -2.86566289   1.55121070
H   -0.54498210  -3.47735979   2.24658197
H   -1.09037640  -2.79197231   1.01180091
O    0.57075385  -0.22636201   1.77814736
H    1.49923840  -0.30895263   1.56059946
H    0.25681147  -1.12871268   1.83675883
O   -2.31709286  -2.33700430  -0.24531546
H   -2.86219410  -2.82847453  -0.85976929
H   -1.73803027  -1.81615715  -0.80176548
O    1.69179369  -2.57927554  -0.42867855
H    1.11030900  -2.93980524   0.25711819
C    2.22456660  -3.67223534  -1.15951756
H    2.87705057  -3.24830695  -1.92765465
H    1.44630540  -4.26695856  -1.66289727
H    2.82821863  -4.34825758  -0.53391746
O    1.71067607   1.74655120  -0.42535445
H    2.39085215   1.09617694  -0.19557829
C    2.23058290   3.03408473  -0.13468610
H    1.45179399   3.75445301  -0.39934169
H    3.13025062   3.27225703  -0.72345538
H    2.46880148   3.16552289   0.93243772
O   -0.28350854  -0.72056307  -1.31319581
H    0.50282077  -1.26899341  -1.17415033
C   -0.25087169  -0.25295804  -2.65215591
H   -1.14346517   0.36291058  -2.79168346
H   -0.28177377  -1.07076096  -3.38905534
H    0.63124831   0.37167065  -2.86306024
O   -1.65580782   2.75269940  -1.25768023
H   -2.56466851   3.08279827  -1.19911191
C   -0.99833892   3.48149737  -2.28194677
H    0.02387976   3.09705307  -2.33445153
H   -0.94664104   4.56087848  -2.06971794
H   -1.46609256   3.34351827  -3.26934012
O   -2.59865833   0.28707771   0.74835955
H   -2.81405961  -0.63554036   0.54636581
C   -3.48837103   0.72458526   1.76301822
H   -3.23186884   1.76540747   1.97838061
H   -3.38641663   0.14786712   2.69563756
H   -4.54288197   0.69116564   1.44731717
Na  -0.52871955   1.25393691   0.16904882
