46
Energy:   -674.84259915
O    2.92867048  -1.30649542   2.21879133
H    3.71906518  -1.69417702   2.59457192
H    2.49303454  -2.03343935   1.77381303
O   -0.78872062  -0.18743408   1.66886002
H   -0.04208768   0.22052953   2.10742220
H   -1.48203569   0.47105681   1.71285787
O    1.55544616  -3.25847639   0.81909096
H    0.62777044  -3.25069831   1.05486439
H    1.75588220  -4.18149532   0.66387080
O    1.51032607   0.97525998   2.61089796
H    1.76811185   1.31886755   3.46629972
H    2.06587494   0.20619728   2.48385521
O   -1.09429031  -2.89304585   1.39835117
H   -1.01454000  -1.96899414   1.63499471
H   -1.59580045  -3.28187812   2.11496047
O    1.22815509  -1.05560001  -0.91683743
H    1.42505944  -1.87315542  -0.43594752
C    2.45908998  -0.51666652  -1.37168223
H    2.21892820   0.40357338  -1.91109492
H    2.98815455  -1.19005985  -2.06407622
H    3.14188248  -0.26039936  -0.54651626
O    0.76036720   2.10605487   0.13803733
H    1.18317647   1.90172914   0.98533101
C    1.44123807   3.21530130  -0.42633931
H    0.95225944   3.43202169  -1.37997309
H    2.50336545   3.00492764  -0.62735092
H    1.37858582   4.11740343   0.20220168
O   -2.01124573  -1.52424099  -0.92994222
H   -1.86870618  -2.21578076  -0.26670886
C   -2.40412002  -2.15915801  -2.13620253
H   -2.56049279  -1.36591030  -2.87226694
H   -3.34600543  -2.72057750  -2.03403907
H   -1.63364886  -2.84147683  -2.52811138
O   -0.64733820   1.05155259  -2.98198471
H   -0.33502134   0.66860795  -3.81519228
C   -1.28554937   2.28149391  -3.28606465
H   -1.63120686   2.69922749  -2.33658861
H   -2.16083171   2.15552453  -3.94241049
H   -0.60403070   3.01046705  -3.75179827
O   -2.62428143   1.45238794   0.15072564
H   -3.51450998   1.13313900  -0.05902781
C   -2.73684026   2.80821647   0.55271232
H   -1.72527723   3.15196859   0.78522019
H   -3.35600339   2.93433772   1.45465898
H   -3.14312311   3.45471131  -0.24085936
Na  -0.61943807   0.38407136  -0.72585898
