46
Energy:   -671.93534336
O    3.27552219  -0.54599984   0.08109335
H    4.11508917  -0.98430006   0.21984509
H    2.99640526  -0.83190108  -0.78872621
O   -1.46362025  -1.09400594   2.67063745
H   -0.59215879  -1.48020600   2.58325165
H   -1.79241094  -1.42979769   3.50452739
O    1.94233857  -1.22395808  -2.25672617
H    2.16427431  -1.09198171  -3.17844121
H    1.28687875  -0.55208809  -2.06912290
O    0.56967346  -3.27259386  -1.04337883
H    1.09788074  -2.69763710  -1.59714198
H    0.86391991  -4.15603764  -1.26513989
O    0.80609596  -1.43912773   1.02869040
H    1.69405197  -1.10825842   0.89344443
H    0.74114860  -2.19675585   0.44730128
O    2.34455941   2.12162114   0.07667409
H    2.90352505   1.33441291   0.15594504
C    3.19882313   3.25330659   0.03133856
H    2.55300424   4.13104506  -0.05798298
H    3.87760511   3.23925064  -0.83574551
H    3.80391316   3.36619547   0.94451954
O   -3.02017220   1.38975558   0.33831234
H   -3.32696808   2.12671597   0.88711917
C   -4.01877156   1.13407177  -0.63634600
H   -3.65709289   0.30141648  -1.24573825
H   -4.19322784   1.99380049  -1.30208534
H   -4.98164442   0.83830275  -0.19117878
O   -1.83838120  -1.83747299  -0.68024977
H   -1.17427751  -2.47329441  -0.98540658
C   -2.96617434  -2.57360167  -0.23445725
H   -3.70429454  -1.84219258   0.10569641
H   -2.73200367  -3.24039812   0.61012781
H   -3.42508887  -3.17478177  -1.03493041
O    0.25850004   0.79139984  -1.31238966
H    0.88964955   1.43300058  -0.95402943
C   -0.58738210   1.48019891  -2.21934779
H   -1.29195153   0.74287713  -2.61358594
H   -0.03664925   1.91421192  -3.06852584
H   -1.16716146   2.28156580  -1.73515328
O   -0.00651148   1.82993115   1.61572003
H    0.83577889   2.16490003   1.27400955
C   -0.09968274   2.21037198   2.97921468
H   -1.05405533   1.82514516   3.34834671
H   -0.09629717   3.30297135   3.11702794
H    0.70407644   1.77975708   3.59672526
Na  -1.12310119   0.01219879   0.59895916
