46
Energy:   -676.80264049
O    2.38692304  -1.56413431   2.22582986
H    3.27096167  -1.65625502   2.58110627
H    2.39277794  -2.09248516   1.42768015
O   -0.83702620   0.89088295   3.20078252
H   -0.95228543   1.24360216   4.08312957
H   -0.71823966  -0.04981068   3.33199643
O    1.95415513  -2.91115893  -0.12890704
H    1.96578789  -3.82940268  -0.39895322
H    1.02519585  -2.68301210  -0.09404265
O    1.16614592   0.75965732   1.27221814
H    0.58912314   0.97723405   2.00429528
H    1.72454438   0.05802738   1.60708890
O   -0.20874490  -1.78169789   3.13248511
H   -0.33477279  -2.48087662   3.77396615
H    0.73443073  -1.77270964   2.96947963
O    1.75540736  -0.60349260  -1.74149381
H    2.09207501  -1.43329354  -1.37202314
C    2.84432986   0.06763063  -2.35498804
H    2.44752970   0.99996422  -2.76582731
H    3.28744365  -0.50865672  -3.18222464
H    3.64364177   0.32191827  -1.64139460
O    0.64178206   2.69770647  -1.23499326
H    1.26981632   3.21219460  -0.70650654
C    0.23991691   3.50371992  -2.33106829
H   -0.46716331   2.90902099  -2.91575278
H    1.08025322   3.77797414  -2.98787636
H   -0.27007711   4.42728875  -2.01530880
O   -0.54741394  -1.74667129   0.31064847
H   -0.62248661  -1.74346452   1.27645232
C   -1.77812605  -2.21718946  -0.21517862
H   -1.67619441  -2.21442170  -1.30379585
H   -2.62888515  -1.57001417   0.04968063
H   -2.01128681  -3.24530274   0.10324951
O   -1.22050494   0.13507689  -2.77922475
H   -0.82394444  -0.10017768  -3.63117447
C   -2.61728884   0.28054672  -2.98014030
H   -3.04819907   0.54547997  -2.01080447
H   -3.09655589  -0.64938569  -3.32409690
H   -2.86301808   1.08260026  -3.69365595
O   -1.89175451   1.25978263   0.60388094
H   -1.76534853   1.18914392   1.56171964
C   -2.52369053   2.50295079   0.34364344
H   -2.65850372   2.56616996  -0.73955273
H   -1.91585191   3.36401119   0.66283700
H   -3.51511759   2.58318786   0.81630793
Na  -0.08037456   0.49764573  -0.73268365
