46
Energy:   -674.84204912
O   -0.54037482   1.57787317  -2.71882175
H   -0.83393638   2.34344930  -3.21273131
H   -1.26980552   1.37623101  -2.13273035
O   -2.21089596  -0.91230903   2.05591623
H   -2.61623330  -1.57625725   2.61368521
H   -2.75625913  -0.13451682   2.17360284
O    0.90637871   1.50409061  -0.38191759
H    0.52995353   1.70338326  -1.23913306
H    1.72862756   1.05555573  -0.57928818
O    1.16065165  -0.54317872  -3.33741643
H    1.25175556  -0.71292748  -4.27502897
H    0.58503544   0.21991052  -3.28649837
O   -3.21156211   1.67382862   1.97777686
H   -2.32047030   1.95551833   2.18475063
H   -3.77336023   2.30059831   2.43359971
O   -2.31263075   0.92745530  -0.61773214
H   -2.80607526   1.36677498   0.09074088
C   -3.19302774   0.01454569  -1.25336642
H   -2.62119163  -0.47146594  -2.04852764
H   -4.06195842   0.51143000  -1.71254262
H   -3.56060686  -0.76728734  -0.57043155
O    1.61485551  -0.98497279   1.38066529
H    2.26248345  -0.91289362   0.66386273
C    2.16824644  -1.82918735   2.37745716
H    1.42592994  -1.89947259   3.17715173
H    3.09753466  -1.42529350   2.80881605
H    2.37006235  -2.84701862   2.00858431
O    2.90091571  -0.30978031  -1.08632448
H    2.54494446  -0.50918714  -1.96492829
C    4.30936151  -0.19247207  -1.20901510
H    4.69406143   0.03217267  -0.21050325
H    4.61091795   0.62470311  -1.88285912
H    4.78488909  -1.12293671  -1.55670233
O   -0.22807264  -1.64232200  -1.15344256
H    0.23421636  -1.46287126  -1.98561417
C   -0.27244851  -3.04968293  -0.98052704
H   -0.79634560  -3.23412198  -0.03872065
H    0.72945823  -3.50099883  -0.90790345
H   -0.82583376  -3.55966809  -1.78455269
O   -0.44882779   1.87571694   2.07560837
H    0.18800308   2.28683266   1.47240560
C    0.17639053   1.75270228   3.34308746
H   -0.55465382   1.28793575   4.01020921
H    0.46081511   2.72578869   3.77318375
H    1.07041383   1.11024692   3.31568697
Na  -0.48007351  -0.17333240   0.66032573
