46
Energy:   -674.52510568
O    2.47275074  -1.67109203   1.47484881
H    3.18470123  -1.56493597   2.10579194
H    1.95894437  -0.86750219   1.55533627
O   -1.38134774  -0.86902342   2.92013629
H   -1.64539569  -1.08750965   3.81387803
H   -1.07268141  -1.69689569   2.55191836
O    2.49947822  -1.80208048  -1.26409974
H    3.11815926  -2.44175053  -1.61664455
H    2.63904515  -1.82966448  -0.31753118
O   -0.24381092  -1.50861176  -0.87253984
H    0.63387826  -1.73451699  -1.18053394
H   -0.38799850  -2.08016153  -0.11836967
O    0.68051143   0.42296425   1.59792099
H   -0.00911955   0.08235068   2.16767827
H    0.61273508   1.37411236   1.68132058
O    1.70996597   0.88610609  -1.59449433
H    2.19877234   0.04975369  -1.59199107
C    2.08097060   1.59798696  -2.76415880
H    1.52133217   2.53719876  -2.75107400
H    1.82275285   1.05960023  -3.68949153
H    3.15478292   1.84079320  -2.79153687
O   -0.23752142   2.94098538   0.60590478
H   -0.96583034   3.48165758   0.94599737
C    0.84949555   3.80904720   0.32770243
H    1.66101653   3.18379572  -0.05437021
H    1.21550535   4.33307473   1.22447961
H    0.60759831   4.56097853  -0.43967122
O   -0.07960179  -2.91338808   1.58405954
H    0.87601865  -2.76908766   1.65031854
C   -0.30313032  -4.31418461   1.56567906
H   -1.38430949  -4.45883237   1.49075354
H    0.04512986  -4.81246245   2.48394448
H    0.16812387  -4.80870566   0.70188177
O   -1.50993744   1.37265431  -2.59491037
H   -1.77162722   0.84096934  -3.36123460
C   -1.93066390   2.70646556  -2.83254575
H   -1.62802920   3.29154193  -1.95985847
H   -3.02302347   2.79490880  -2.94073859
H   -1.45635050   3.14989068  -3.72202778
O   -2.38614370   0.55701264   0.70863985
H   -2.32586607   0.07625655   1.54748636
C   -3.66619020   0.29753754   0.15484618
H   -3.71715186   0.84652385  -0.78934773
H   -4.48738225   0.64911435   0.79890728
H   -3.82728122  -0.77009922  -0.06189966
Na  -0.42393743   0.81190002  -0.58174214
