46
Energy:   -672.94155302
O    2.44823852  -2.07989071   0.91169095
H    3.03867127  -2.68677243   1.35813870
H    1.79374356  -2.64256659   0.49785035
O   -1.80122138  -0.43453500   2.64700435
H   -1.89507882  -0.46457535   3.59911790
H   -0.85893606  -0.35030311   2.50128128
O    0.41690910  -3.41954167  -0.33414594
H   -0.43755090  -3.17827240   0.02351186
H    0.30357900  -4.31940471  -0.64014372
O    0.77718153  -0.06322265   1.77196072
H    1.32751384   0.69844864   1.95423260
H    1.39734760  -0.77080635   1.59603120
O   -0.48996315  -0.85942769  -1.33060208
H    0.08766043  -1.61354914  -1.44843118
H   -1.22220773  -1.19634648  -0.81433138
O    2.51157072   0.10072114  -0.89196017
H    2.77592133  -0.69196359  -0.40186532
C    3.34586228   0.19812419  -2.03520293
H    3.03457799   1.09615787  -2.57568679
H    3.23962399  -0.66272638  -2.71375068
H    4.41072058   0.30730389  -1.77648702
O    1.74378211   2.52409105   1.07179854
H    2.63852077   2.85973681   0.91302849
C    1.02063569   3.53383041   1.75737818
H    0.01533371   3.13926773   1.92818047
H    0.92814067   4.46224830   1.17234637
H    1.46073499   3.78209298   2.73587480
O   -1.99987997  -2.29178052   0.55662418
H   -2.07898685  -1.77126240   1.36978238
C   -3.25183806  -2.91627973   0.32181480
H   -3.14504004  -3.49834375  -0.59757677
H   -4.06758957  -2.19136173   0.17409653
H   -3.54158965  -3.60543782   1.13044480
O    0.32459787   2.71623249  -2.10744234
H    0.41371052   3.67055488  -2.24798054
C   -0.05355182   2.13253675  -3.34390337
H   -0.14950826   1.05773397  -3.16761794
H    0.69951663   2.28312744  -4.13319906
H   -1.02203261   2.50592891  -3.71187156
O   -1.70277575   1.47360403   0.55814568
H   -2.00474145   0.95971922   1.32179637
C   -2.85241391   1.97151305  -0.10740107
H   -2.49415906   2.54777460  -0.96475822
H   -3.45416271   2.64128927   0.52669319
H   -3.50629178   1.16953886  -0.48430750
Na   0.41771620   1.09324216  -0.40189925
