46
Energy:   -673.04867663
O    2.40017704  -0.69978909   2.10407186
H    3.31069974  -0.43103182   2.22634120
H    2.20361608  -0.47486842   1.19467298
O   -1.08815267  -1.88530143   1.47584264
H   -1.81603396  -2.49283562   1.60745907
H   -0.30451722  -2.41194165   1.63331457
O    1.08086182  -2.95364204  -1.11139863
H    1.17326579  -3.19815405  -0.19057984
H    1.53656964  -3.64582754  -1.59039911
O    1.32893181  -3.18615776   1.65369980
H    1.78669331  -2.39220744   1.92997712
H    1.61716053  -3.85704424   2.27262417
O    1.43020922  -0.30678217  -0.41193551
H    1.64612996   0.28392983  -1.13350977
H    1.38757700  -1.17352088  -0.81588892
O    1.91534613   1.54194080  -2.47598536
H    2.09657624   1.45093881  -3.42324328
C    2.83076109   2.49050611  -1.95179735
H    2.61267870   2.58083996  -0.88419954
H    2.71929600   3.48640449  -2.40845836
H    3.87994269   2.17393185  -2.06031479
O   -3.19172232   0.67184858   0.82034199
H   -3.80686331   0.58975372   1.56417347
C   -3.94193007   1.06697356  -0.31702266
H   -3.23379278   1.15473668  -1.14546965
H   -4.43404751   2.04310181  -0.18371331
H   -4.70760247   0.32748140  -0.59928928
O   -1.23511073  -1.32925349  -1.62562069
H   -0.63791118  -2.09180050  -1.60835702
C   -1.86585143  -1.30518860  -2.89610124
H   -2.53483125  -0.44034991  -2.89839060
H   -2.47081674  -2.20524833  -3.08763918
H   -1.14981423  -1.18509641  -3.72413864
O   -0.58517386   2.01084669  -1.13850094
H    0.19635189   2.05364262  -1.70929800
C   -0.73562764   3.27816853  -0.51899083
H   -1.62027834   3.21235881   0.12018631
H   -0.89878516   4.08981176  -1.24520859
H    0.12416948   3.54650050   0.11466855
O    0.12157207   1.03869288   2.14032314
H    0.89854699   0.55382618   2.45597728
C   -0.48903879   1.65196793   3.26441471
H   -1.36226121   2.19373558   2.89097714
H    0.17276039   2.37536772   3.76590442
H   -0.83480862   0.92102560   4.01204020
Na  -0.96332595   0.13086243   0.23484203
