46
Energy:   -674.71422480
O    3.42231883  -0.68544943   1.19193839
H    4.37300788  -0.79115091   1.22728499
H    3.11740572  -1.42866312   0.67146431
O   -2.61687244  -1.13979700   2.11033841
H   -2.25169786  -0.26158510   2.21814949
H   -3.15747258  -1.27218036   2.88909254
O    2.12023052  -2.64928173  -0.23160810
H    1.29731833  -2.47978947   0.22699821
H    2.21532807  -3.60149968  -0.20994518
O    1.33866685  -0.19414058   2.95951947
H    1.56561755  -0.37603648   3.87146196
H    2.16343084  -0.28992630   2.48326186
O   -0.05743341  -1.59566297   1.06003915
H    0.40291802  -1.18891893   1.79411523
H   -0.94248439  -1.75261434   1.38910280
O    0.58252495  -1.06417318  -2.03972764
H    1.27053184  -1.66403899  -1.71533465
C    0.06702017  -1.61100879  -3.24295638
H   -0.70655628  -0.92297124  -3.59462245
H   -0.39606116  -2.59941565  -3.09672062
H    0.83051600  -1.69826755  -4.03177661
O    1.66882591   1.19431878   0.04275739
H    2.42084088   0.66290279   0.34357924
C    2.12233486   2.52863823  -0.11989254
H    1.26294339   3.11340251  -0.45898284
H    2.91664969   2.61844329  -0.87737279
H    2.48700695   2.97139869   0.82018979
O   -2.66270078  -0.51899480  -0.62837383
H   -2.99943738  -0.87084448   0.20902305
C   -3.57124753  -0.89668984  -1.65034401
H   -3.17682496  -0.49234788  -2.58651901
H   -4.57981492  -0.48176533  -1.49735122
H   -3.65785433  -1.98905770  -1.75992977
O   -1.16108273   2.17198597  -1.80411823
H   -1.96331389   2.69246748  -1.95886786
C   -0.34622299   2.28316010  -2.96004975
H    0.55287367   1.69112146  -2.76873681
H   -0.03544511   3.31995785  -3.16313804
H   -0.83269203   1.88295281  -3.86335443
O   -0.97103865   1.16158947   1.81966448
H   -0.14549340   1.04660251   2.31330029
C   -1.34310793   2.52721930   1.91533787
H   -2.27468474   2.63908755   1.35396871
H   -0.59491239   3.20377050   1.47345640
H   -1.52951089   2.84548292   2.95299848
Na  -0.47856546   0.34306614  -0.47228380
