46
Energy:   -674.51362613
O    1.72559477  -2.84758458   0.56859366
H    2.57233378  -3.16075762   0.88669356
H    1.87015491  -1.92177584   0.37311377
O   -0.05497841  -1.48743840   2.25564934
H    0.11569939  -1.66145341   3.18129490
H    0.46746276  -2.13945684   1.78857438
O    1.16365497  -0.48414527  -2.82447477
H    1.00905298  -1.42095231  -2.70313786
H    1.61993277  -0.42293142  -3.66369779
O    0.73870607  -3.09410394  -2.00231619
H    1.12650565  -3.18207772  -1.13162454
H    0.80745798  -3.96871898  -2.38513933
O    1.66427534  -0.22749044  -0.12886351
H    2.16778242   0.55552830   0.09383389
H    1.60328232  -0.21000455  -1.08395824
O    2.96443925   2.14738684   0.57520985
H    3.82781112   2.35067659   0.96467815
C    2.78049733   3.00848744  -0.53708728
H    1.80344204   2.76611623  -0.96382417
H    3.54102626   2.86058960  -1.31971063
H    2.77508176   4.07287218  -0.25453970
O   -2.90435477   0.64733952   1.35593933
H   -3.81031472   0.74016495   1.02572230
C   -2.96449199   0.60877603   2.77277741
H   -1.93579424   0.50398371   3.12814300
H   -3.54507367  -0.24734452   3.15061315
H   -3.38303664   1.53073815   3.20588660
O   -1.34319409  -1.75836831  -0.65088417
H   -0.78933383  -2.29205564  -1.23981534
C   -2.40024810  -2.58399556  -0.18881249
H   -3.01425203  -1.96724668   0.47308267
H   -2.04168979  -3.45103414   0.38777867
H   -3.04137692  -2.95093247  -1.00556733
O   -0.68598339   1.24386430  -1.47852130
H   -0.20841564   0.76400794  -2.17140671
C   -1.86831434   1.77230995  -2.05763483
H   -2.39405310   2.30954793  -1.26362015
H   -2.54004030   0.98912668  -2.44258359
H   -1.66148208   2.48391933  -2.87225735
O    0.29711348   2.02719571   1.64449866
H    1.22764440   2.20767162   1.44458884
C   -0.38998873   3.26830877   1.65241714
H   -1.43639043   3.04664771   1.87912190
H   -0.35290275   3.78111867   0.67854447
H   -0.01249842   3.95844186   2.42312766
Na  -0.69733127   0.13596396   0.63980679
