46
Energy:   -676.92221518
O    2.19086951  -1.68965699   2.25327451
H    3.06898315  -1.84396553   2.60160934
H    2.14945858  -2.22516993   1.46097224
O   -0.79220955   1.01137681   3.29146559
H   -0.85423117   1.36346386   4.17939569
H   -0.75494455   0.06247967   3.41162131
O    1.63542187  -3.02258828  -0.08248452
H    1.58160986  -3.93932463  -0.35254115
H    0.72460497  -2.73157896  -0.03823519
O    1.12837507   0.71154329   1.29963947
H    0.58993416   0.97848761   2.04465891
H    1.64027454  -0.02834678   1.62637096
O   -0.40421574  -1.70668680   3.18707408
H   -0.57366245  -2.39329116   3.83212766
H    0.53468466  -1.76881123   3.01146531
O    1.56991536  -0.70106609  -1.68144641
H    1.85148225  -1.55091701  -1.31145078
C    2.69861313  -0.10674787  -2.30222092
H    2.36378735   0.84937963  -2.71355667
H    3.09732836  -0.71368255  -3.13013020
H    3.51703064   0.09443096  -1.59335056
O    0.70367297   2.66795499  -1.18837914
H    1.36130771   3.12507133  -0.64341632
C    0.39173799   3.51203216  -2.28508516
H   -0.35015058   2.98190757  -2.88845443
H    1.26483186   3.72042710  -2.92309454
H   -0.04652247   4.47238793  -1.97136251
O   -0.77236138  -1.68146678   0.36618994
H   -0.84233168  -1.66046027   1.33215379
C   -2.03573189  -2.07071027  -0.14851213
H   -1.93914463  -2.08924419  -1.23746235
H   -2.83743194  -1.36172101   0.11108103
H   -2.33927536  -3.07559036   0.18443635
O   -1.74322850   0.45824236  -2.47380602
H   -2.68848425   0.65185240  -2.56000350
C   -1.26783106   0.05788865  -3.74905029
H   -0.20184059  -0.15632555  -3.63389042
H   -1.37735622   0.84603559  -4.51036887
H   -1.76123504  -0.85422784  -4.11968940
O   -1.89758101   1.39883690   0.72170957
H   -1.74423860   1.35682659   1.67729552
C   -2.49899104   2.65173584   0.43695707
H   -2.66478124   2.68234149  -0.64334942
H   -1.85575202   3.50356814   0.70788624
H   -3.47263999   2.77916906   0.93550079
Na  -0.18154872   0.53134619  -0.68111315
