46
Energy:   -671.66452164
O    2.92927442  -1.66809597   0.76131163
H    3.67088083  -2.15845423   1.11599537
H    2.35086153  -1.53165514   1.51168106
O    0.98207638  -1.22470135   2.66617127
H    0.91378332  -1.37896476   3.60838712
H    0.30321199  -1.77969285   2.28229706
O    0.97653735  -2.37590432  -1.06117081
H    1.73927752  -2.19971003  -0.51033975
H    1.31427053  -2.92172303  -1.77127650
O    0.30691217   0.29867039  -1.46969115
H    1.16472468   0.64165991  -1.21919617
H    0.41540026  -0.65226589  -1.45618594
O    0.46552559   1.26991905   1.53620535
H    0.58185527   0.47291009   2.05338614
H    1.29587003   1.37846931   1.07254944
O    2.67931108   0.99582759  -0.16578458
H    3.03984980   0.13784169   0.10309328
C    3.77365967   1.86247191  -0.41849501
H    3.34970214   2.82412144  -0.72011631
H    4.42065337   1.50370243  -1.23425290
H    4.39855517   2.02938026   0.47280996
O   -0.19161874   3.63164290  -0.50936784
H    0.11863888   4.39274119   0.00336296
C    0.16581379   3.85107074  -1.86459003
H   -0.19106300   2.98456058  -2.42786997
H    1.25471094   3.92794674  -2.01009062
H   -0.30580391   4.75151841  -2.28832117
O   -0.77396404  -2.70236043   1.11397630
H   -0.27363210  -2.78704630   0.28879781
C   -1.42773676  -3.93909192   1.34979452
H   -1.98649949  -3.82617144   2.28281027
H   -0.72271114  -4.77603482   1.47325615
H   -2.14207957  -4.20106586   0.55364043
O   -2.98577741   2.13179821  -1.48924751
H   -3.57814154   2.87240314  -1.68681357
C   -3.17748427   1.14771797  -2.49292492
H   -2.50279300   0.32084477  -2.25510649
H   -2.92675104   1.51382911  -3.50083008
H   -4.20596156   0.75446281  -2.51195578
O   -2.29334159  -0.34538742   0.73794335
H   -1.91491618  -1.21263868   0.94553125
C   -3.66910494  -0.38254376   1.08207760
H   -4.07972576   0.60192322   0.84186830
H   -3.83422537  -0.56880999   2.15483921
H   -4.23082889  -1.13604323   0.50807230
Na  -1.16852560   1.52041059  -0.12224990
