46
Energy:   -672.95372327
O    3.21701869  -1.17363090   1.03612572
H    2.86488457  -1.84426303   0.45090273
H    3.98796241  -1.58073018   1.43128113
O   -0.04049402  -0.94704225  -1.36429889
H   -0.85096687  -1.42818253  -1.19735685
H    0.65333241  -1.59391181  -1.23625006
O    1.73786807  -2.91742540  -0.50384302
H    1.06474528  -3.18063938   0.12373642
H    1.94309273  -3.71858465  -0.98577512
O    0.58758374  -0.59689644   1.73047798
H    1.53231510  -0.74482269   1.68767229
H    0.20682979  -1.47510736   1.72851572
O   -0.34600839  -3.18981578   1.28410311
H   -1.13588580  -2.92322222   0.81372730
H   -0.65149695  -3.83942389   1.91728389
O    2.36951569   1.26921818  -0.07394251
H    2.91309743   0.53589452   0.25036994
C    3.24113348   2.22984590  -0.64840799
H    2.61253249   3.04877726  -1.00854327
H    3.80725069   1.83186698  -1.50508846
H    3.95693052   2.64344902   0.07915258
O   -0.37090232   2.19440565   2.01287102
H   -0.04245780   1.62818402   2.72697222
C    0.22279535   3.47323174   2.16990818
H   -0.15793258   4.09824115   1.35756915
H    1.32097310   3.44461454   2.09268110
H   -0.04605975   3.95259175   3.12421853
O   -2.36842446  -1.99437014  -0.16047383
H   -2.62427494  -1.09452132   0.09099365
C   -3.51619568  -2.63493644  -0.69416835
H   -3.21028740  -3.64716061  -0.97221068
H   -3.90137836  -2.13473549  -1.59650456
H   -4.33675741  -2.71472627   0.03596133
O   -0.34680442   2.77081311  -1.52799505
H   -0.56692539   3.71369611  -1.55868172
C   -0.03345187   2.35876007  -2.84881156
H    0.21202548   1.29459921  -2.79601238
H    0.83715383   2.88971071  -3.26464141
H   -0.87894704   2.47998768  -3.54395119
O   -2.38880102   0.78688007   0.42323714
H   -2.34690220   1.33168208   1.22314872
C   -3.36155254   1.35875187  -0.43655987
H   -3.39584589   0.73284742  -1.33241298
H   -3.10533697   2.38409198  -0.74608946
H   -4.36833717   1.37178490   0.00952551
Na   0.03665852   0.97403616  -0.02816725
