30
Energy:   -127.96273529
O    0.78149536  -1.08630576   1.99247017
H   -0.16827250  -0.94420950   2.11964308
C    0.95935808  -2.41409902   1.52571148
H    2.03451880  -2.55723995   1.38777925
H    0.46408522  -2.59490133   0.55886472
H    0.60395568  -3.16878074   2.24468434
O   -2.01771841  -0.62478416   2.06812478
H   -2.84912976  -0.52590149   2.55536257
C   -2.31217728  -0.50490136   0.68557068
H   -1.36487018  -0.61872331   0.15158657
H   -2.73526038   0.47777159   0.42454981
H   -3.00143197  -1.28596833   0.32830367
O   -0.67780142   2.22373929  -0.73792200
H    0.12035179   1.68781903  -0.61890856
C   -0.85991679   2.99224597   0.44053684
H   -1.76300152   3.58982420   0.28946256
H   -0.02266115   3.68142679   0.63239648
H   -1.00895686   2.36877385   1.33599589
O    1.51059455   0.49912149  -0.18797405
H    1.38543245  -0.00216256   0.63145992
C    2.90646607   0.61207029  -0.41451112
H    3.02946705   1.17927657  -1.34113564
H    3.39656166  -0.36545480  -0.54500383
H    3.42521565   1.15619052   0.39023070
O    0.22462723  -1.31362422  -1.97490539
H    0.71784688  -0.67688606  -1.43664693
C   -0.53214627  -0.57974896  -2.92424977
H   -1.08143722  -1.31216748  -3.52201876
H    0.09912470   0.01226503  -3.60527381
H   -1.26431948   0.09533441  -2.45418364
