30
Energy:   -126.67741715
O    0.00339336   2.26383679   1.63326375
H    0.29092814   1.60640669   2.28405764
C    1.13697164   2.63239582   0.86404447
H    0.79530840   3.37328128   0.13614326
H    1.56933204   1.78417703   0.31054046
H    1.93198826   3.09224408   1.47171667
O   -1.01319127  -1.53365237  -0.65396262
H   -1.41393207  -0.67576129  -0.44938261
C   -2.03464211  -2.37487873  -1.16534327
H   -1.56606483  -3.33676674  -1.39049209
H   -2.48004939  -1.98631162  -2.09453932
H   -2.84374079  -2.55092373  -0.43929587
O    1.45889709  -0.36191333  -1.41378788
H    0.64138131  -0.81843024  -1.16542617
C    2.39752380  -1.34734003  -1.81434734
H    3.31227692  -0.81597107  -2.09067858
H    2.06055463  -1.92477628  -2.68944533
H    2.64386201  -2.05347465  -1.00597322
O    0.88362017   0.06748589   3.22402089
H    1.66881219  -0.32268383   3.63592422
C    0.25378068  -0.94405653   2.45420408
H   -0.62850286  -0.48760783   1.99735012
H   -0.08080051  -1.79704709   3.06513768
H    0.89730267  -1.32639407   1.64644496
O   -1.86021334   1.08559145  -0.13234166
H   -1.30756129   1.57602303   0.49413727
C   -1.69966837   1.68443565  -1.40832940
H   -2.32887907   1.11985127  -2.10174384
H   -0.66163289   1.63655336  -1.77297575
H   -2.02705451   2.73570709  -1.42892052
