30
Energy:   -130.75318091
O   -2.24962726   0.97989229  -0.48714185
H   -1.34928369   1.01045490  -0.84333094
C   -3.14691915   1.18136944  -1.56733072
H   -4.15620933   1.14395079  -1.14850096
H   -3.06772625   0.39834598  -2.33764240
H   -3.01486548   2.16100007  -2.05278205
O    1.12186114  -0.33550688   2.36400920
H    0.54686044  -1.10171324   2.22004642
C    0.29838920   0.81893595   2.40511237
H    0.96198184   1.67253639   2.56788925
H   -0.43125570   0.79167920   3.22952290
H   -0.24750309   0.98563599   1.46331089
O    2.46896353  -0.31425442  -0.10659363
H    2.17556455  -0.26235587   0.81516927
C    2.84687496  -1.65736834  -0.36303412
H    3.17461269  -1.69796465  -1.40535131
H    2.01203411  -2.36493400  -0.23987190
H    3.68271460  -1.99238321   0.27093311
O   -0.53654695  -2.53312069   1.66660161
H   -1.13769078  -3.18526466   2.05616241
C   -1.13218627  -2.05999712   0.46914529
H   -0.44203425  -1.32653282   0.04346289
H   -2.09754157  -1.55946458   0.64331089
H   -1.28369772  -2.85795286  -0.27455375
O    0.39446121   1.01573567  -1.44998652
H    1.15712350   0.53064065  -1.10148641
C    0.79822876   2.35943797  -1.65967600
H   -0.07256565   2.89151992  -2.05222039
H    1.61300950   2.44878648  -2.39515307
H    1.11297310   2.85889165  -0.73002050
