30
Energy:   -125.46642964
O    0.60518630  -1.12496012   2.47062717
H    0.85571784  -0.28536648   2.05742051
C   -0.59981494  -1.56139251   1.86232417
H   -0.86765556  -2.50803197   2.33941989
H   -0.48920725  -1.74297079   0.78178143
H   -1.43190747  -0.85585946   2.01273184
O    1.03481183   1.31502257   1.04128075
H    0.19508380   1.53614200   0.61187846
C    1.26359506   2.27580353   2.05965787
H    2.21321412   2.01184609   2.53298155
H    0.48176468   2.26783485   2.83519323
H    1.35173012   3.30037066   1.66561250
O    1.68291081  -0.49950380  -1.07864209
H    1.57761750   0.14603441  -0.36406738
C    2.51803982  -1.54085558  -0.59835075
H    2.62613267  -2.25908876  -1.41562809
H    2.08487195  -2.06918370   0.26536930
H    3.52289535  -1.18613759  -0.32046974
O   -1.34754041   1.59893156  -0.38597836
H   -1.84109727   0.79669529  -0.61234503
C   -0.87076709   2.16664529  -1.59549153
H   -0.31728136   3.06911264  -1.32219421
H   -1.68430978   2.45864712  -2.27788478
H   -0.18536885   1.49708782  -2.13835374
O   -2.67222550  -0.81227766  -1.09824529
H   -3.51637266  -1.28712692  -1.11714048
C   -1.75067922  -1.54078416  -1.89358453
H   -0.80547826  -0.99211374  -1.86131801
H   -2.06513696  -1.61745706  -2.94620741
H   -1.56872927  -2.55706351  -1.51037725
