30
Energy:   -128.17521938
O    2.68653914  -1.56669240  -1.62601881
H    2.68480611  -1.32580603  -0.68772566
C    1.35489159  -1.89503203  -1.98856763
H    1.37498818  -2.16386521  -3.04819495
H    0.65960156  -1.05016891  -1.86384625
H    0.96072714  -2.75547150  -1.42549070
O    1.57955698  -0.60125787   1.11258824
H    0.71523953  -1.03603384   1.06412717
C    1.90344583  -0.43899129   2.48419290
H    2.87966857   0.05208515   2.52050124
H    1.98392415  -1.39856517   3.01853227
H    1.18116572   0.19720031   3.01930880
O    0.58528297   1.61148556  -0.42715233
H    1.04967057   0.89102096   0.02417703
C    1.31142348   1.91962715  -1.60626322
H    0.77465481   2.73285253  -2.10227641
H    1.36688639   1.07071288  -2.30558129
H    2.33601007   2.26472500  -1.39672295
O   -2.20381747   1.37731419  -0.19920518
H   -1.24934880   1.54286233  -0.20178314
C   -2.85889573   2.63562294  -0.19112261
H   -3.93289260   2.43066441  -0.18830777
H   -2.62910398   3.24040003  -1.08231157
H   -2.62285366   3.23218006   0.70396458
O   -1.18510552  -1.06982532   1.04764253
H   -1.69345431  -0.29000114   0.77953989
C   -2.08374224  -2.16508942   1.12100723
H   -1.49474780  -3.03494602   1.42419077
H   -2.55599879  -2.39326876   0.15266573
H   -2.87852190  -2.01373857   1.86813208
