30
Energy:   -128.99510560
O   -1.03559946   1.80213209   0.80367107
H   -0.77525241   1.34107768   1.61488714
C   -2.42882422   2.05769777   0.88205933
H   -2.70523862   2.57731879  -0.03939294
H   -2.69523151   2.70512307   1.73214459
H   -3.02734256   1.13553709   0.94665670
O   -0.17122121   0.35780786   3.07008275
H    0.58554559   0.38521538   3.67421529
C   -0.29660276  -0.97386731   2.59737304
H   -1.15350395  -0.98683246   1.91837565
H   -0.49091499  -1.69565829   3.40609912
H    0.58886431  -1.31099597   2.03606238
O    1.73554867  -1.35404328  -0.48035615
H    1.52766151  -0.44549634  -0.74445586
C    2.42778062  -1.96729219  -1.55612308
H    2.65421936  -2.98975695  -1.24183577
H    3.37858261  -1.46414087  -1.79190194
H    1.82437154  -2.01859961  -2.47592868
O   -0.87033597  -2.50688643  -0.40328439
H    0.05662096  -2.22611885  -0.38474542
C   -1.59723511  -1.54291317  -1.14820519
H   -2.63904002  -1.87458935  -1.15909696
H   -1.25323043  -1.46381649  -2.19136473
H   -1.56291581  -0.54025577  -0.69402719
O    0.82608548   1.20295600  -1.20340934
H    0.14418071   1.48014542  -0.57365130
C    1.57352768   2.35392123  -1.56277402
H    2.33702299   2.02375886  -2.27238865
H    2.08356070   2.81537467  -0.70271334
H    0.95891630   3.12319742  -2.05597210
