30
Energy:   -127.88769357
O   -0.80275646   0.38066229  -1.59843743
H   -0.64518712  -0.22579100  -0.85964816
C    0.41980834   0.52767645  -2.30289178
H    0.22438902   1.21374125  -3.13151207
H    0.78438506  -0.42201762  -2.72472386
H    1.21900481   0.96150626  -1.68172027
O    0.89429157  -1.33470268   0.88625293
H    0.02405407  -1.00403919   1.15415520
C    0.86450708  -2.74993408   0.97988390
H    1.85226180  -3.10582809   0.67465406
H    0.11635172  -3.20464929   0.31184575
H    0.67578632  -3.10438333   2.00532406
O    3.10050771  -0.99003080  -0.88234946
H    2.35889972  -1.11643308  -0.27205173
C    4.13822403  -0.33649091  -0.16921257
H    4.96550502  -0.20197604  -0.87135010
H    4.50670076  -0.92855626   0.68311416
H    3.83964733   0.65681195   0.20089379
O   -1.65685751  -0.26040708   1.29862829
H   -1.94526691   0.63576038   1.07031451
C   -2.81531395  -1.02161443   1.60041602
H   -2.47231967  -2.02801929   1.85534617
H   -3.50554788  -1.10237252   0.74611363
H   -3.37369367  -0.62284045   2.46179209
O   -2.30418970   2.17683282   0.02195491
H   -1.88674351   1.73852675  -0.73438478
C   -2.16340868   3.57665772  -0.16026669
H   -2.63894918   4.05489001   0.70033793
H   -2.66365158   3.93925208  -1.07189145
H   -1.11043855   3.89776816  -0.19058702
