30
Energy:   -125.26351191
O    2.36515568   0.84479551  -0.04011937
H    2.49178765   0.79298366   0.91889217
C    2.71643533  -0.41515457  -0.58935719
H    2.56797926  -0.33921599  -1.66994931
H    2.08273319  -1.23407177  -0.21442580
H    3.76983778  -0.67964587  -0.40724471
O   -0.73228352  -1.36789460   0.80097467
H   -0.65145552  -0.54472977   0.29670315
C   -1.85248609  -2.07521890   0.29365594
H   -1.92893996  -2.99953046   0.87269665
H   -1.73945993  -2.34573937  -0.76786236
H   -2.79569158  -1.51922507   0.41202659
O   -0.35748386   1.07049670  -0.66004271
H    0.60733702   1.09371115  -0.57634665
C   -0.88762062   2.07412122   0.19097235
H   -1.97506393   2.03411839   0.08442640
H   -0.55443406   3.08644401  -0.08645623
H   -0.64207054   1.90586248   1.25124188
O    2.45413512   0.69457265   2.78858499
H    2.52719492   1.25829315   3.57299862
C    1.59737336  -0.38803861   3.11484548
H    1.52614637  -1.01288175   2.22042780
H    0.58113050  -0.05994798   3.38388882
H    1.99045904  -1.00923426   3.93483142
O   -2.58460456   0.15189393  -2.16023426
H   -1.82648548   0.50716365  -1.67293336
C   -2.24025613   0.13087300  -3.53628515
H   -3.10508694  -0.27192074  -4.07042940
H   -1.37568777  -0.51742770  -3.74842918
H   -2.02859471   1.13454790  -3.93705124
