30
Energy:   -130.62869481
O    0.14913868   1.58123572  -1.74527286
H   -0.41086177   1.99385616  -1.07105691
C   -0.53780509   0.44145280  -2.23673693
H    0.10690981  -0.01117769  -2.99499383
H   -1.49777793   0.69594396  -2.71261900
H   -0.72612906  -0.31128560  -1.45526632
O    1.38428906  -0.37687017   1.17082167
H    1.90213826  -0.24204275   0.36330879
C    1.30250966   0.86979767   1.84288208
H    0.71608462   0.69985259   2.74991545
H    0.79218871   1.64193760   1.24609921
H    2.28906396   1.25726970   2.14180241
O   -1.23112641  -1.44641148   1.19509026
H   -0.27396874  -1.30410463   1.24004818
C   -1.45164484  -2.83608776   1.01424437
H   -2.53460911  -2.97862508   0.96569848
H   -1.06491236  -3.44029312   1.84979880
H   -1.01479244  -3.21768920   0.07812597
O    2.72461701   0.30322044  -1.34273775
H    2.04218726   0.91256774  -1.66118522
C    3.14333566  -0.48746372  -2.44365874
H    3.91190216  -1.16804844  -2.06736739
H    3.58582309   0.11250573  -3.25422574
H    2.32723096  -1.09425842  -2.86621125
O   -1.98646862   1.27760110   0.76488738
H   -1.74417375   0.34330219   0.84736174
C   -2.80602492   1.60928042   1.87432421
H   -3.06976825   2.66479627   1.76564596
H   -2.28802921   1.48431760   2.83808874
H   -3.73932639   1.02542037   1.90318824
