30
Energy:   -128.51583427
O   -2.64653268  -1.08551372   1.64795142
H   -3.07573562  -1.80847662   2.12912993
C   -1.33811762  -1.51355526   1.30536675
H   -0.86896897  -0.68747227   0.76409820
H   -1.33823423  -2.39654124   0.64725348
H   -0.71941045  -1.73829079   2.18824427
O    0.17020330   2.00451812   0.50163177
H   -0.23973084   1.80339598  -0.35272598
C   -0.86706014   2.34736201   1.40666016
H   -0.38783704   2.57088224   2.36367068
H   -1.58122500   1.52443375   1.56645676
H   -1.42995666   3.23941075   1.09015758
O   -0.90249195   0.86631414  -1.85225032
H   -0.42107772   0.02571734  -1.84446457
C   -2.28921661   0.56842027  -1.82418345
H   -2.81653667   1.52619572  -1.83339910
H   -2.58860710   0.02261251  -0.91575813
H   -2.61762702  -0.01054740  -2.70152054
O    1.88636973  -0.18900565   0.84619774
H    1.35943594   0.62380570   0.83610979
C    3.04875455   0.06116845   1.62002474
H    3.63077432  -0.86443263   1.62093464
H    2.81644970   0.31938257   2.66507845
H    3.67789562   0.85961771   1.19642394
O    0.76731890  -1.38978656  -1.44955194
H    1.23633218  -1.13027027  -0.64264358
C    1.70542700  -1.38310184  -2.51371465
H    1.16052421  -1.67763339  -3.41472370
H    2.52648348  -2.10102779  -2.36131410
H    2.14239739  -0.38758184  -2.68914025
