30
Energy:   -126.93500204
O    0.61169628   2.49704940   0.08345110
H    1.37982257   2.19821973  -0.42557356
C   -0.39538642   2.87747792  -0.84044952
H   -1.25317146   3.21134289  -0.25034427
H   -0.72431285   2.04246920  -1.47868551
H   -0.08353203   3.70984657  -1.49059304
O    2.73389812   1.31321902  -1.35857818
H    3.69730064   1.29379941  -1.45808567
C    2.26207247  -0.01946689  -1.47631766
H    1.17544450   0.02071058  -1.36181599
H    2.66340078  -0.68328137  -0.69461231
H    2.48561968  -0.46450149  -2.45853361
O   -1.65701208  -0.55196267  -0.96939052
H   -1.22560273  -0.33709053  -0.12906962
C   -3.04761471  -0.67904239  -0.71917296
H   -3.51814772  -0.92110063  -1.67598626
H   -3.49882408   0.25237456  -0.34280890
H   -3.27980980  -1.48893361  -0.00999105
O   -0.27458533   0.19914326   1.39536559
H    0.02799097   1.05365678   1.05378471
C   -0.25857128   0.27182212   2.81205014
H   -0.60208463  -0.69867659   3.18031096
H   -0.93601093   1.04563445   3.20583603
H    0.74923587   0.45343183   3.21716740
O    1.19965723  -2.23303319   1.02012485
H    0.70253402  -1.41772778   1.18312443
C    0.41363786  -3.05398884   0.17116127
H    0.98836277  -3.96783624  -0.00221526
H    0.21282616  -2.58653306  -0.80553575
H   -0.54883387  -3.33702242   0.62538313
