30
Energy:   -129.08902334
O    1.55515966   1.78119141  -0.11736201
H    1.67014505   1.47517984  -1.02926033
C    2.53846358   1.13985605   0.67909022
H    2.39461644   1.49578072   1.70286306
H    3.56544212   1.39155468   0.37129125
H    2.43518496   0.04344985   0.68116420
O    0.72102795  -2.19815264   0.72225324
H   -0.05991618  -1.94873315   0.20617238
C    0.47895827  -1.83489117   2.07205958
H    1.36829328  -2.12282193   2.63921415
H   -0.38685278  -2.35995754   2.50501902
H    0.32814193  -0.75158066   2.20039547
O   -1.58397117  -1.12184161  -0.55998034
H   -1.50915801  -0.24356163  -0.15817124
C   -2.87157872  -1.62939122  -0.24854184
H   -2.93892908  -2.61895495  -0.70866439
H   -3.68385094  -1.00739994  -0.65611762
H   -3.03252291  -1.74494618   0.83475006
O    1.69817288   0.74474967  -2.75194388
H    1.49338176   0.97911360  -3.66930827
C    1.25734502  -0.58676716  -2.53918225
H    1.49569765  -0.83454192  -1.50126082
H    1.76906728  -1.31319821  -3.18973247
H    0.17082370  -0.70210757  -2.67682429
O   -1.07223987   1.31469068   0.73243221
H   -0.15278197   1.52437783   0.51095594
C   -1.75515273   2.54058810   0.94061318
H   -2.78904831   2.28599186   1.18906011
H   -1.76691885   3.17855646   0.04304131
H   -1.33700002   3.12376673   1.77597438
