30
Energy:   -130.59831776
O    2.07526317   1.17067959   0.77240141
H    1.14879052   1.38698740   0.58996613
C    2.24764103  -0.21755461   0.53655094
H    3.29644629  -0.44407116   0.74674844
H    2.03981536  -0.50058301  -0.50723100
H    1.62473945  -0.84155622   1.19639407
O   -0.80906016  -2.00239962  -0.68393679
H   -1.03487621  -1.62416341   0.17883071
C   -0.02708183  -3.16342079  -0.45355991
H    0.21847668  -3.57675065  -1.43557043
H   -0.56878582  -3.93489381   0.11579366
H    0.91651575  -2.94359762   0.06996536
O   -0.66477420   1.66362648   0.10957019
H   -0.92127040   1.25529587  -0.73060782
C   -0.88704629   3.06005422  -0.00496556
H   -0.59300604   3.50432337   0.94983832
H   -1.94443100   3.30889919  -0.18604868
H   -0.28017196   3.52357228  -0.79845903
O   -1.04454018  -0.52621077   1.75529786
H   -0.95198173   0.34312804   1.33803745
C   -0.70420334  -0.38455812   3.12520265
H   -0.81385147  -1.37281629   3.57996442
H   -1.36927933   0.31243602   3.65872908
H    0.33590507  -0.05424902   3.27301238
O   -1.15288820   0.40874865  -2.29538321
H   -1.39751504  -0.52771359  -2.25514066
C    0.06541678   0.50479005  -3.01582945
H    0.32637695   1.56596856  -3.05167875
H   -0.02284453   0.13978178  -4.05108605
H    0.89222070  -0.03375281  -2.52680573
