30
Energy:   -126.57058151
O   -1.70059887  -0.68660420  -2.15763067
H   -2.43711777  -0.73020911  -2.78537409
C   -1.22447688   0.64968858  -2.14485465
H   -0.39532376   0.68096801  -1.43280696
H   -1.98797158   1.36998063  -1.81163918
H   -0.84443372   0.97510273  -3.12590009
O    0.20324205   2.43009226   0.53105698
H    0.78170108   1.65366425   0.49994481
C    1.03016077   3.58274807   0.54218337
H    0.36259748   4.44797006   0.57733096
H    1.65258252   3.66831810  -0.36227573
H    1.68971788   3.62444309   1.42310520
O   -2.50312340  -1.10678544   0.58640591
H   -2.19877973  -0.93427841  -0.31694316
C   -1.88676491  -0.15384951   1.43761040
H   -2.24045716  -0.36254577   2.45093802
H   -2.16278310   0.88221706   1.18629912
H   -0.78818827  -0.23070111   1.43688113
O    1.76664451   0.09560974   0.35808748
H    1.49980700  -0.66873345  -0.17389044
C    2.42944919  -0.39398427   1.51286947
H    2.72317214   0.47988578   2.10071569
H    3.33988948  -0.96435454   1.27089104
H    1.78055018  -1.02500137   2.14018504
O    0.62513860  -2.00486822  -1.12308805
H   -0.16030348  -1.63942516  -1.55662627
C    0.22490170  -3.16836904  -0.41696480
H    1.12149340  -3.56715037   0.06530273
H   -0.18231962  -3.94855033  -1.07898088
H   -0.51840573  -2.95527805   0.36716760
