30
Energy:   -130.02802818
O   -0.79339357   1.22917566  -1.46449836
H   -0.87136685   0.33900332  -1.83857944
C    0.58508065   1.56264583  -1.43073093
H    0.65477925   2.56807241  -1.00676785
H    1.04255815   1.58201992  -2.43228787
H    1.17172208   0.88218359  -0.79386335
O   -1.50975359   2.01339306   1.13584076
H   -1.31938256   1.83081782   0.20372037
C   -2.38554819   3.12829638   1.18592246
H   -2.58961437   3.32026220   2.24280056
H   -3.34597293   2.93757724   0.68195039
H   -1.94081085   4.03817234   0.75335827
O   -1.02382218  -1.43050872  -2.45501945
H   -1.64786358  -2.05953970  -2.84657485
C    0.19125969  -2.12233491  -2.21525634
H    0.88273780  -1.39923325  -1.77427196
H    0.64791476  -2.51221553  -3.13842294
H    0.07265263  -2.95712571  -1.50685390
O   -0.12530012  -0.37338906   1.80762210
H   -0.57121953   0.48531277   1.76060824
C   -1.05826544  -1.36523258   1.40968250
H   -0.53963438  -2.32598981   1.46844116
H   -1.40819620  -1.22894081   0.37442874
H   -1.93794439  -1.41117022   2.07061518
O    2.21186296  -1.30210790   0.52502497
H    1.41539823  -1.00106598   0.98702170
C    3.31035388  -1.13425356   1.40688459
H    4.19904647  -1.47809336   0.87070843
H    3.21318173  -1.73307431   2.32598666
H    3.46954043  -0.08265714   1.69251012
