30
Energy:   -125.79071981
O    0.72093867   1.81904691   0.33607664
H    1.08724939   1.42528005   1.14179830
C   -0.58502885   2.28294556   0.63902988
H   -0.98285491   2.72338741  -0.27924600
H   -0.58999688   3.05932818   1.42004375
H   -1.26260244   1.47254483   0.95035291
O   -2.72144097  -0.22488248  -0.82813425
H   -1.83724091  -0.15348129  -1.21738404
C   -3.49284079  -1.07209425  -1.66461995
H   -4.48552898  -1.14156945  -1.21159837
H   -3.07860377  -2.08991278  -1.73694175
H   -3.60993600  -0.67137206  -2.68368215
O   -0.07559063   0.15774307  -1.82902936
H    0.31392050   0.76988667  -1.18716912
C   -0.00094147   0.76910060  -3.10699776
H   -0.44388718   0.06625451  -3.81783647
H    1.03499370   0.96751968  -3.42361351
H   -0.56745659   1.71192085  -3.16110806
O    1.65321907   0.38742084   2.60706764
H    1.42900989  -0.54066319   2.44331920
C    3.05488586   0.46177059   2.81282499
H    3.29018421   1.51373873   2.99580841
H    3.63168686   0.13061181   1.93509394
H    3.38780054  -0.11955308   3.68690046
O    0.97836121  -2.30018837   1.92403355
H    0.45067836  -3.04993699   2.23684516
C    0.71649555  -2.13749006   0.53929913
H    1.31875631  -1.28905959   0.20324419
H   -0.34052289  -1.90989256   0.33028066
H    1.00629314  -3.01840413  -0.05465801
