30
Energy:   -126.00828652
O   -0.95425588   1.11907216   1.20427660
H   -1.60973019   0.44530331   0.97015644
C   -1.65833822   2.28145739   1.61129304
H   -0.90506778   3.03007246   1.87137827
H   -2.28811321   2.10849001   2.49799654
H   -2.29097403   2.69728701   0.81152121
O    1.28263318  -0.63348479   1.14384793
H    0.60310236   0.04497128   1.27174831
C    1.02269572  -1.68180264   2.06362833
H    1.79721305  -2.43728872   1.90599305
H    0.04317695  -2.15782055   1.90014357
H    1.07733754  -1.35056610   3.11247243
O    1.26022322  -2.14517426  -1.27300666
H    1.35723251  -1.64125472  -0.45137561
C    1.56968835  -1.27562017  -2.35033706
H    1.45541073  -1.85919333  -3.26787081
H    2.60451777  -0.90101025  -2.31067830
H    0.88934383  -0.41159202  -2.40833721
O   -2.64745318  -0.97698172   0.40733861
H   -3.31169945  -1.65520521   0.60024552
C   -2.00137106  -1.33910903  -0.80260993
H   -1.25653062  -0.56468365  -1.00500377
H   -2.69315452  -1.37942494  -1.65852324
H   -1.47843578  -2.30576379  -0.73264861
O    0.32485417   2.00734644  -1.20250523
H   -0.10412566   1.75374736  -0.37179043
C    1.69385936   2.25240356  -0.92267388
H    2.16192994   2.53679415  -1.86899154
H    2.21526768   1.36195950  -0.53794010
H    1.84076320   3.07707126  -0.20774747
