29
Energy:   -778.27022218
O    1.49667740  -1.52027407   2.13376975
H    0.72240792  -1.48516285   1.57207070
H    1.94423468  -0.68865280   1.97778774
O   -3.66573227  -0.07073777  -1.66747802
H   -3.69783587   0.88231646  -1.58447902
H   -2.73827179  -0.26929955  -1.79640484
O   -2.47918699   2.42084687  -1.44700288
H   -2.30090771   2.49592776  -0.50955357
H   -1.91066625   1.71002854  -1.74323474
O   -1.82819824   2.07745171   1.20255189
H   -0.96221841   1.88820598   0.84130845
H   -2.26396389   1.22601341   1.23987452
O    2.72427957   0.85412957   1.31349966
H    1.88515670   1.10219024   0.92546545
H    3.22450286   0.48314254   0.58660411
O    2.63169204  -2.67715749  -0.08776343
H    2.15345163  -2.11807169  -0.70008771
H    2.27488024  -2.45218361   0.77148272
O   -2.95129308  -0.47259475   0.97110278
H   -3.29093067  -0.37149766   0.08191352
H   -2.06176162  -0.80537460   0.85184174
O    3.91756480  -0.35251090  -0.86689320
H    3.03879286  -0.23577902  -1.22795468
H    3.90268285  -1.22659747  -0.47704318
S    0.07193201  -0.12089411  -0.72390139
O   -0.42441105  -1.11472446   0.26909649
O    0.40045373   1.15499016  -0.02798989
O    1.29421177  -0.65229058  -1.39004701
O   -0.98252642   0.12844844  -1.74666517
