29
Energy:   -774.36580629
O    1.45653959  -0.21805001   2.90420023
H    0.72282372   0.18861354   2.44320388
H    1.94256618  -0.68021460   2.22125522
O   -1.63686129   2.77733612  -1.47035007
H   -1.85111064   1.85879425  -1.30722468
H   -1.15381347   3.05309808  -0.69134302
O    1.57672612  -0.58865006  -3.20135454
H    1.47720133   0.36246993  -3.24255452
H    1.21318131  -0.83132470  -2.34978186
O    0.21669007  -2.68294384   2.67281612
H   -0.38654328  -2.44976851   1.96714578
H    0.54774794  -1.84369751   2.99265691
O   -3.67478363  -1.85384671  -0.57197633
H   -3.36339885  -1.00994784  -0.89924697
H   -2.96500591  -2.17148896  -0.01380895
O    0.28042634   3.07472369   0.50223124
H   -0.03096904   2.27381343   0.92390355
H    0.76503956   2.76935799  -0.26466750
O    2.22526085  -1.96030432   0.88509679
H    1.74246089  -1.46057933   0.22675723
H    1.54846709  -2.42306608   1.37909436
O    0.93787402   1.88905772  -1.94539141
H    0.92163784   1.03882113  -1.50599869
H    0.01813914   2.14853442  -2.00008542
S   -0.74107750  -0.33830047   0.10561304
O    0.51670321  -0.50336281  -0.67595085
O   -1.80719056   0.21018508  -0.77907140
O   -1.17094406  -1.66106130   0.64004596
O   -0.50287860   0.60103716   1.23742845
