29
Energy:   -781.09188205
O   -0.42368382   3.03607076   1.18331815
H    0.16395904   2.28770376   1.07913296
H   -1.29998450   2.67269173   1.05570682
O    1.34868304  -2.73178803   1.82573412
H    1.41561599  -1.93842201   2.35707411
H    1.20055631  -2.41265002   0.93554243
O   -2.73754211   1.93262213   0.09030135
H   -2.25403747   2.30615474  -0.64653547
H   -2.37132223   1.05475131   0.19734185
O    2.32029952  -2.06140926  -2.52658518
H    1.76883281  -1.99305925  -1.74719786
H    2.50033067  -1.15429419  -2.77349181
O    0.84482312  -0.35588819   3.13928550
H    0.96992099   0.12975486   2.32397378
H   -0.01366906  -0.76829495   3.04366285
O   -1.27218789  -2.00676770   2.38016666
H   -1.44835016  -1.42648192   1.63958101
H   -0.47245128  -2.47229736   2.13534974
O   -0.81491758   3.10487184  -1.54764620
H   -0.52209124   3.26834336  -0.65111865
H   -0.51667768   2.21571043  -1.73915809
O    0.42574221  -0.66748710  -3.97342087
H    0.86091700  -1.43030776  -3.59268554
H    0.17605015  -0.13267543  -3.21985455
S    0.07214741  -0.13389270  -0.28885276
O    0.74953480  -1.45063821  -0.45446554
O    0.85805634   0.71423114   0.65089887
O   -0.02192379   0.54606230  -1.61131706
O   -1.29707771  -0.34522602   0.25947270
