29
Energy:   -773.77897348
O   -0.95539514   2.59515724   1.41562932
H   -0.21000930   2.37762372   0.85588744
H   -1.15342767   1.78114618   1.87866382
O   -0.39220654  -3.05130819   0.46988407
H    0.52003154  -3.14304358   0.19486016
H   -0.62610824  -2.15460563   0.23020439
O   -2.36288111   1.54832656  -0.75534590
H   -2.03111057   2.10571524  -0.05144390
H   -1.82986874   0.75488041  -0.70462244
O    2.30151422  -2.85600474  -0.26289101
H    2.32605224  -2.25124676   0.47865974
H    2.11627766  -2.30017188  -1.01983823
O    0.47325334  -1.88060404   2.87346658
H    1.00621039  -1.28618041   2.34540487
H    0.02538683  -2.43395018   2.23357949
O   -1.52030608  -0.00348035   2.35633196
H   -0.85712995  -0.54369392   2.78598131
H   -1.35101180  -0.11449094   1.42078509
O   -0.35107760   2.79381672  -2.22686766
H    0.27573876   2.49594506  -1.56762145
H   -1.18457666   2.40817379  -1.95707013
O    1.00229632   0.88970137  -3.75441413
H    0.51420317   1.60270004  -3.34255271
H    1.26336686   0.32570992  -3.02641162
S    0.89932138   0.07229251  -0.21059744
O    1.50819048  -0.46328911  -1.46060974
O   -0.51965566  -0.37291809  -0.11899140
O    1.65635437  -0.43583441   0.96787959
O    0.95239634   1.56121166  -0.23066820
