29
Energy:   -774.08088835
O   -1.96820228   3.20159005  -0.46669218
H   -1.40210824   3.44953511  -1.19764542
H   -2.02606680   2.24767470  -0.52081275
O    2.60152909  -2.05351614  -0.13928162
H    2.26895211  -2.00156747   0.75677961
H    2.05431936  -1.44364043  -0.63409975
O    0.11284779   2.56316261   1.23156039
H   -0.01351574   1.61679066   1.29970901
H   -0.62423784   2.86613219   0.70132831
O    1.84910219   2.07178669  -0.89957378
H    1.35296684   2.31021691  -0.11648209
H    1.60328079   1.16288707  -1.07192563
O    0.99608525  -2.14063264   2.11546231
H    0.63060114  -2.81744682   1.54574677
H    0.53543686  -1.34031382   1.86342125
O   -2.61873022  -1.82446382   1.77809508
H   -2.36730154  -2.04202441   0.88049670
H   -2.02446248  -1.11729595   2.02907576
O   -0.26700550   2.60490447  -2.56930773
H   -0.79083441   1.87672320  -2.23526109
H    0.57960164   2.51173413  -2.13249257
O    0.45352463  -3.78876373  -0.09889151
H   -0.24425588  -3.17735536  -0.33450563
H    1.26268312  -3.31761965  -0.29768193
S   -0.58367346  -0.39812900  -0.45267765
O   -1.20888782  -1.74310439  -0.59497385
O    0.74122375  -0.39166722  -1.13437086
O   -1.46695171   0.62842561  -1.07405129
O   -0.40007807  -0.08616998   0.99268539
