29
Energy:   -773.04614433
O    1.88531291   2.53634742  -1.02611694
H    1.41449691   2.03237253  -0.36235986
H    2.15555866   1.88595566  -1.67433730
O    0.93412452  -2.92020329   1.52036785
H    1.43831687  -2.16585620   1.82529799
H    0.38924475  -2.57471134   0.81328001
O   -3.77486289   1.23914036   0.51744858
H   -3.27819850   1.26199777  -0.30049633
H   -3.18779081   0.81441975   1.14290091
O    2.07268555  -0.08347890  -1.99191762
H    1.75248655   0.06505214  -1.10217442
H    1.32830991  -0.46954295  -2.45353576
O    1.70909714  -0.48415857   2.62992053
H    1.46164401  -0.02330450   1.82828949
H    0.87610820  -0.70719198   3.04539300
O   -0.70493224  -1.64827978   3.36028610
H   -1.11038364  -1.02034118   2.76234453
H   -0.28668931  -2.29031507   2.78661775
O   -0.56812489   2.82764035  -2.25728629
H    0.30127717   2.87118370  -1.85919600
H   -0.99137314   2.08377305  -1.82862068
O   -0.31695251  -1.13166258  -2.95393835
H   -0.33553377  -1.58536684  -2.11130021
H   -0.77991353  -0.30928324  -2.79396594
S   -0.69012446  -0.08737701   0.13377913
O   -0.52337800  -1.51589808  -0.25560905
O    0.64984934   0.53152933   0.33755640
O   -1.41436212   0.64044569  -0.94596804
O   -1.47260705  -0.00558496   1.39913721
