29
Energy:   -771.72949377
O    0.59828306   2.81195435   1.26441808
H   -0.33013111   2.61393612   1.38716889
H    0.87393533   2.23704727   0.55046463
O    0.62258206  -3.43343625   1.10666472
H    0.27775749  -3.60976283   0.23131519
H    0.92532156  -2.52623471   1.06709195
O   -2.07814615   2.30051922   0.57219064
H   -1.87608756   1.37041060   0.47069131
H   -1.66626429   2.71944181  -0.18351370
O   -0.93154475  -3.55082704  -1.19896617
H   -0.46375644  -2.76915787  -1.49290368
H   -1.51722172  -3.23539255  -0.51069630
O    1.98351412   0.82856744   2.65586498
H    1.54214313   1.60600272   2.31378623
H    1.76712841   0.13569062   2.03190121
O   -2.00002628  -2.50385285   1.13563724
H   -1.85383196  -1.62183061   0.79373691
H   -1.12832875  -2.81337866   1.38174503
O   -0.36391938   3.48579111  -1.28218249
H   -0.01040503   3.78890674  -0.44589285
H   -0.03159182   2.59280858  -1.37368350
O    1.76119979   0.26733458  -3.38800824
H    1.28644820  -0.48321193  -3.03090502
H    1.70306774   0.93523177  -2.70480559
S    0.25553957  -0.28405011  -0.41145378
O    1.11669643  -0.81590799   0.68199767
O    0.30736695  -1.20860496  -1.57876361
O   -1.14939496  -0.17305108   0.07221779
O    0.74748987   1.06136361  -0.82126696
