29
Energy:   -774.08176798
O    1.83930590  -1.84592920  -1.63512500
H    0.88291958  -1.81312266  -1.61319818
H    2.10819007  -0.93419964  -1.74774094
O   -2.90111273   1.04779016   2.43945790
H   -2.80726433   0.82419864   1.51348211
H   -2.14056244   0.64786646   2.86118785
O    1.61361455  -2.39661002   1.12380421
H    0.68942404  -2.15949990   1.20050183
H    1.82294298  -2.25108003   0.20118051
O   -0.52397056   0.64006303  -3.43191208
H   -0.63598391  -0.11882468  -2.85939632
H   -0.89300710   1.37111377  -2.93632285
O   -0.60908023  -0.30740466   3.44569908
H   -0.84855982  -0.81492740   2.67026240
H    0.24268040   0.07248668   3.23025013
O   -1.41637187   2.49475902  -1.55584667
H   -0.58357935   2.34817827  -1.10729062
H   -2.01630679   1.86205570  -1.16088282
O    1.85577857   0.92210153  -2.01833017
H    1.17628147   0.80849430  -2.68286680
H    1.38788011   0.86828434  -1.18501956
O    1.82558470   0.22539419   2.12449365
H    1.90550329  -0.71468030   1.96292378
H    1.25973756   0.54262046   1.42063545
S   -0.93703376  -0.39370904  -0.11928516
O   -0.75898908  -1.12533302  -1.40502481
O   -2.25568667   0.30001377  -0.12106628
O   -0.88590898  -1.36037757   1.01342761
O    0.15244969   0.61086067   0.03552283
