29
Energy:   -771.00442645
O    0.14157263   1.89585311  -2.05420540
H    0.58485658   1.26360513  -1.48852556
H   -0.74892125   1.55601379  -2.14230618
O   -0.24138726  -1.64228466  -2.34737270
H   -0.81644656  -2.15841004  -1.78243620
H    0.31190709  -1.14994817  -1.74098834
O   -2.23969731  -2.47670471  -0.62462277
H   -2.56487780  -1.59869536  -0.82359286
H   -1.60520363  -2.34375102   0.07963069
O    3.20511942  -0.60080287   1.25740713
H    2.54248523  -0.22554121   1.83734373
H    2.80921026  -0.56628983   0.38660483
O   -2.16831583   0.25021211  -1.87861959
H   -1.95560432   0.43141410  -0.96311345
H   -1.48551789  -0.35478882  -2.16843454
O    1.94628120  -3.05009609   1.73141458
H    1.06304947  -2.72450838   1.55784555
H    2.50938068  -2.28290501   1.62861056
O   -1.01719774   3.15055724   0.16021234
H   -0.47825366   2.98715348  -0.61378399
H   -1.25838277   2.27869434   0.47312880
O    0.59718732   2.98411098   2.43289341
H    0.04866770   3.17454081   1.67191080
H    0.70424725   2.03301007   2.41958601
S   -0.00140721  -0.25028146   0.83784087
O    0.86227919  -0.13924450  -0.37121520
O   -0.32757358  -1.68292060   1.08534964
O    0.72062304   0.30555999   2.01674401
O   -1.26095751   0.51547927   0.62048504
