29
Energy:   -777.26856328
O   -0.47514779   1.69189757   2.98265211
H   -0.38841113   0.73969583   2.93770260
H    0.15123280   2.02064171   2.33782152
O   -0.31561507   1.70519499  -2.44552059
H   -0.18833904   2.45691434  -1.86677134
H   -0.48228830   0.97188642  -1.85331250
O   -1.48650417  -2.57745095  -0.40546423
H   -1.28126982  -1.64657506  -0.49253195
H   -1.11257936  -2.82764164   0.43941250
O    0.18175278  -3.33374119   1.69500040
H    0.70229257  -3.45788107   0.90136354
H    0.26041679  -2.39991629   1.88997445
O   -0.22731340   3.47386607  -0.30539035
H    0.42116174   2.85041693   0.02175336
H   -1.06982418   3.10561896  -0.03930485
O   -2.21491528   1.84062146   0.79198731
H   -1.78916822   1.15683871   0.27486795
H   -1.74069042   1.84303172   1.62345398
O    2.17138849   0.40436182  -2.71230346
H    1.35618383   0.90600716  -2.70728749
H    2.18017249  -0.04772411  -1.86863705
O    1.16951545  -3.28104596  -0.88158070
H    1.55517469  -2.42220692  -0.70868100
H    0.23469221  -3.10673013  -0.99090287
S    0.68619904  -0.00550876   0.46947760
O    1.11085590   1.40137535   0.71533053
O    1.77329901  -0.73539575  -0.24156292
O    0.40745223  -0.67484933   1.77116245
O   -0.54681100  -0.01316530  -0.36701964
