29
Energy:   -772.60704441
O    2.30347957   2.22748350  -1.99564930
H    1.90563676   2.18035745  -1.12632077
H    2.05357678   1.40606244  -2.41878980
O    0.58791435  -3.09852787   0.51101766
H    0.56110931  -2.26747801   0.03681362
H    1.11101070  -2.91306816   1.29089377
O   -1.21459640  -2.16341542   2.40521813
H   -1.11718264  -1.22830763   2.22545211
H   -0.79942780  -2.59578621   1.65894580
O   -1.20990913   3.08903595  -0.57595467
H   -0.36784521   2.77471066  -0.24677414
H   -1.86076947   2.56387423  -0.11031767
O    1.21703935  -0.11345823  -3.01833773
H    0.38124915   0.33238040  -3.15586775
H    1.18217460  -0.41391957  -2.11018616
O   -1.32305171   0.73929296  -2.04461154
H   -0.74394649   0.17456781  -1.53279663
H   -1.15877753   1.61999803  -1.70755900
O    1.47701960  -2.34201083   3.04540424
H    1.74639643  -1.53310538   2.61027214
H    0.52264383  -2.28395063   3.09043482
O   -2.86407435   1.05762135   0.28777762
H   -2.56756926   0.76952957  -0.57554139
H   -2.15986983   0.79865413   0.88213764
S    0.65382420   0.34951879   0.75141576
O    0.50617412  -0.53742913  -0.43670159
O   -0.60760306   0.33181949   1.54425119
O    1.77930503  -0.13729288   1.59782425
O    0.93742072   1.74097769   0.30028921
