29
Energy:   -772.46433525
O   -2.19498298   1.07248132  -2.66884939
H   -1.49864905   0.71536842  -3.22004925
H   -1.76816096   1.25641887  -1.83205683
O   -0.26516117  -0.54217902  -3.85527812
H    0.35407037  -0.19334090  -3.21411036
H   -0.81888738  -1.14026813  -3.35337320
O   -0.76729348  -2.23010007   2.09503603
H   -0.96730861  -1.42597403   2.57420937
H   -0.57774587  -1.93742731   1.20360673
O   -0.52733557   0.18219045   3.55177856
H    0.32511483  -0.19504697   3.33440313
H   -0.59924082   0.95302024   2.98885500
O    1.69955187  -1.12844315   2.67756618
H    1.01450307  -1.74954390   2.43023269
H    1.72468304  -0.49923400   1.95666665
O    3.61574404   1.20510907  -0.94255874
H    3.19988822   1.12456546  -0.08418323
H    2.93601781   0.94422040  -1.56396135
O   -2.06122528  -1.63798884  -2.05533362
H   -2.33175080  -0.72508863  -2.15362408
H   -1.39141252  -1.61754118  -1.37183921
O   -0.28734039   2.44681075   1.98029808
H    0.57420680   2.04805466   1.85797934
H   -0.76484045   2.23745300   1.17755598
S    0.40786099   0.26658524  -0.43774768
O    1.11564273   0.35263810  -1.74608246
O   -0.11347974  -1.11587020  -0.24508013
O    1.35627431   0.59759942   0.66272577
O   -0.72699335   1.23197366  -0.42255387
