29
Energy:   -779.19152031
O    3.91167356   0.35862966   0.35003392
H    3.42332772  -0.46094314   0.27224827
H    3.23813902   1.03852183   0.36819170
O    0.15574849   3.27279458  -1.01894903
H    0.69936837   2.61342277  -0.58774363
H   -0.73955281   2.95003089  -0.91652325
O   -0.90484552   2.24636101   2.09904257
H   -0.14897497   2.54934862   1.59596201
H   -0.79777101   1.29624681   2.14431841
O    0.74928559  -3.66948816   0.64904255
H    1.20964835  -2.85024623   0.46699682
H    0.00811459  -3.41160607   1.19712486
O   -2.13802101   1.89091008  -0.36362968
H   -1.66706920   1.11589457  -0.66987664
H   -1.85699284   1.99904895   0.54497420
O   -1.61600102  -2.58766050   1.61631328
H   -1.73016001  -2.63482051   0.66711598
H   -1.15731907  -1.76025272   1.76204960
O   -0.02057603   1.39515739  -3.06069744
H    0.16548063   2.16639363  -2.52515153
H   -0.13973410   0.68675986  -2.42807896
O   -1.19466560  -2.76889907  -1.12401803
H   -0.98686153  -1.83579283  -1.17261906
H   -0.42211329  -3.16619676  -0.72208605
S    0.57241600  -0.11480109   0.29817286
O    1.23589613   1.21922070   0.31490553
O    1.60540339  -1.18178463   0.17741205
O   -0.19256072  -0.30493563   1.56259347
O   -0.35907481  -0.19170480  -0.86221962
