29
Energy:   -783.96187033
O    0.25895530   2.93922527   0.37894794
H    0.62399979   2.05830537   0.29555427
H   -0.66588954   2.79761554   0.58103840
O    0.72567016  -3.04214039   1.75802853
H    1.17355233  -2.26338602   2.08844499
H    0.40054959  -2.78416698   0.89548683
O   -2.47056639   2.39223333   0.25545702
H   -2.18735724   2.51495216  -0.65061390
H   -2.26626168   1.47732365   0.44892981
O    2.76725181  -0.37243936  -1.81811288
H    2.23173870  -0.05216574  -1.09224625
H    2.16738224  -0.90189739  -2.34352943
O    1.28632947  -0.46951905   2.64095045
H    1.28305219  -0.12837716   1.74661085
H    0.36267667  -0.61508448   2.84566503
O   -1.30240721  -1.48361986   2.82742875
H   -1.53306153  -0.95537316   2.06323908
H   -0.76779213  -2.19505128   2.47488955
O   -1.01730164   2.74089993  -2.07952789
H   -0.40230304   2.96517589  -1.38116634
H   -0.97696179   1.78630438  -2.13742323
O    0.74543140  -1.83243587  -3.09997500
H    0.59050852  -2.25529380  -2.25533193
H    0.22176919  -1.03185172  -3.06719152
S   -0.40414467  -0.39830335  -0.41666771
O   -0.16951236  -1.86872788  -0.47051363
O    0.83425482   0.28544903   0.05125255
O   -0.76215275   0.09760267  -1.77534628
O   -1.51916841  -0.10753721   0.52793651
