29
Energy:   -781.97932532
O   -0.43523287  -2.13276077   2.45615720
H   -0.81534899  -1.63909212   1.72949714
H    0.44850150  -2.35211375   2.16097983
O    1.38711014  -2.53340036  -2.76945996
H    0.51713449  -2.31679837  -3.10480724
H    1.42476777  -2.11277010  -1.91045826
O   -2.77235779   1.41349267   0.99988976
H   -2.29550241   0.60436012   0.81510525
H   -2.08926741   2.07519656   1.10836706
O   -0.71587459   3.24665353   0.56126447
H   -0.07451929   2.54209432   0.65341407
H   -1.11667375   3.09588455  -0.29480831
O    1.16472788   0.06487032   3.09410983
H    0.45574320  -0.57705355   3.05529843
H    1.10908815   0.53449466   2.26189048
O    2.25380903  -2.09142385   1.75147185
H    2.11878518  -1.29626888   2.26696092
H    1.96605963  -1.85715983   0.86911563
O   -2.23072816   2.28994265  -1.56606042
H   -2.63763090   1.92523287  -0.78015408
H   -1.49718772   1.70339608  -1.75075853
O    1.09554016  -0.03342164  -3.90892991
H    1.53180743  -0.81166915  -3.56218282
H    0.60473029   0.31766340  -3.16591119
S    0.16709829  -0.04097869  -0.29502004
O   -0.17440118   0.57063831  -1.61008762
O    1.13985075  -1.15067554  -0.50099468
O    0.77289024   0.99246837   0.59104051
O   -1.06994667  -0.57634590   0.33996165
