29
Energy:   -771.04695265
O    1.41432226   2.42025165   0.68836393
H    0.88578897   2.34284964   1.48265188
H    0.93417578   1.91718010   0.03063281
O   -0.97730104  -3.37414696  -1.65994757
H   -0.08345700  -3.32714853  -1.32073402
H   -1.39991797  -2.57971282  -1.33360238
O   -3.77145273   0.90604712  -0.53020864
H   -3.38477175   0.07688771  -0.81164128
H   -3.24416831   1.17348595   0.22257251
O    2.51661856  -0.40180737  -1.20480687
H    1.63213287  -0.04139742  -1.26822284
H    2.71917564  -0.37752899  -0.26959939
O    2.40985596   0.04089845   1.59836777
H    2.19382783   0.90009459   1.23595132
H    1.63411135  -0.49336213   1.42802172
O    0.18550058   1.54527868   3.00590616
H   -0.55058919   1.29614284   2.44703674
H    0.82041442   0.83739925   2.89625678
O   -1.85198056   2.09419027  -2.18736528
H   -2.59768977   1.75619849  -1.69147096
H   -1.09505139   1.63182085  -1.82749781
O    1.51061274  -2.90547697  -0.48521742
H    0.95225446  -2.45294417   0.14698662
H    1.93638715  -2.20241787  -0.97578434
S   -0.80608621  -0.21666417   0.18194786
O   -1.79897918  -1.03019022  -0.57464907
O    0.09657549  -1.12124750   0.94812725
O   -0.00089561   0.59718106  -0.77168942
O   -1.52104554   0.68759998   1.12600269
