29
Energy:   -772.41178052
O   -3.19279964   0.17621979  -1.23125063
H   -2.66370901  -0.41799423  -1.76342039
H   -2.63067773   0.39867807  -0.48911646
O    2.23839366   3.16749513   0.14189549
H    1.61752240   2.92267331  -0.54426265
H    2.16399926   2.46976435   0.79294777
O   -1.26734315  -0.92008342  -2.92222929
H   -1.27286262   0.02109850  -3.09652207
H   -0.68619894  -1.02114523  -2.16837934
O   -1.65526356  -0.09587885   3.11242576
H   -0.77649037  -0.45382604   3.23837554
H   -1.64845237   0.24833452   2.21928377
O    3.04234261  -1.13106201   0.08107555
H    2.67955447  -0.41315413   0.59994441
H    2.38086121  -1.30049699  -0.58971949
O   -1.67543924   1.82391324  -2.86241865
H   -2.35269496   1.46682328  -2.28792471
H   -0.89626416   1.87943845  -2.30921435
O    0.95001750  -1.04987206   3.04442449
H    1.06592642  -0.30373882   2.45613702
H    0.83496261  -1.79990983   2.46095422
O    1.03991388  -2.85155423   0.93076674
H    0.52427985  -2.28001205   0.36182655
H    1.92165014  -2.47966873   0.90899078
S    0.12246169   0.54707256  -0.05538733
O    1.15936052   0.69456058   1.00441836
O    0.31691219   1.60096123  -1.09057218
O    0.24470727  -0.79727106  -0.68617754
O   -1.23113323   0.69003947   0.55078202
