29
Energy:   -773.91470578
O    0.80291617   2.36305865   1.86246133
H    0.89405764   2.73813093   0.98653561
H    0.87528398   1.41816779   1.72764294
O   -2.47748110  -1.67645219   1.50963682
H   -2.18735149  -1.10822967   0.79606844
H   -1.72691671  -1.71996779   2.10208203
O    0.90511941   2.13437805  -3.43228125
H    0.64422138   2.85859605  -2.86335915
H    0.94556191   1.37504158  -2.85089981
O   -1.74091226   2.27975910   0.70359063
H   -1.01776766   2.26366317   1.33051539
H   -1.71881115   1.41703218   0.28953067
O    2.52975816  -1.65261252  -2.54542477
H    2.41128831  -0.70542111  -2.47453632
H    1.87483342  -2.02140839  -1.95272330
O   -0.91119681  -3.73284132   0.52915456
H   -0.33676044  -3.18926161  -0.01008175
H   -1.64300288  -3.15848639   0.75456114
O    0.41567020   3.08512691  -0.79062712
H    0.73714612   2.21025305  -1.00852803
H   -0.46061092   2.93713295  -0.43501352
O   -0.00332849  -2.20898578   2.67627358
H    0.37789416  -1.45343667   2.22900779
H   -0.11492642  -2.86437857   1.98762415
S    0.26781875  -0.43131029  -0.31611895
O    0.95385879   0.47763429  -1.27698772
O    0.51459034  -1.84719960  -0.70913452
O    0.79979097  -0.19673315   1.05576995
O   -1.19696511  -0.15894271  -0.33412349
