73
Energy:   -667.53690144
C    3.65354968   0.49997984   1.89694730
H    4.71701926   0.43836259   1.99762475
H    3.35147030   0.00797457   0.99607108
H    3.18783466   0.02598709   2.73560068
C    3.22799768   1.97898028   1.84160131
N    2.91115488   3.08016334   1.80039370
C    1.69150570   0.20624430  -4.38210101
H    1.78184778   0.33195108  -5.44084380
H    1.11702944  -0.67237836  -4.17498184
H    2.66540391   0.10557096  -3.95049212
C    0.98661035   1.43477686  -3.77759270
N    0.46178372   2.34947519  -3.32750879
C   -0.20804388   3.08773514   3.63527739
H   -1.11939431   3.26452120   3.10321794
H    0.58287008   3.65016938   3.18469785
H   -0.32555638   3.39107335   4.65462809
C    0.13442537   1.58722756   3.58243990
N    0.38940930   0.47003145   3.54309998
C   -3.10052221  -0.50337764   3.19416919
H   -2.71059626   0.45387681   3.47079502
H   -3.10030894  -1.14876779   4.04761550
H   -4.10131660  -0.39001566   2.83297845
C   -2.22163370  -1.11538670   2.08755277
N   -1.56726126  -1.57105526   1.26362654
C    0.04393999   3.41970248  -0.10237066
H   -0.24433638   3.68642173  -1.09768858
H    0.92661983   3.95964427   0.17009632
H   -0.74704682   3.66386732   0.57558398
C    0.32687354   1.90729604  -0.03775345
N    0.53753043   0.78124071   0.01035701
C    1.19993755  -2.78989360   4.04110379
H    1.48610396  -1.92590993   4.60372372
H    1.77734651  -3.63170192   4.36181666
H    0.16054854  -2.98963300   4.19818259
C    1.45297822  -2.53433366   2.54368617
N    1.64137849  -2.34405766   1.42879069
C    4.79386686  -1.94165810  -1.36255134
H    5.20648962  -1.00531231  -1.67543983
H    5.23398419  -2.73346213  -1.93197403
H    4.99955066  -2.09263986  -0.32341815
C    3.27052498  -1.93238929  -1.58825818
N    2.13632770  -1.92548824  -1.75630719
C    0.44142114  -6.04643767  -2.23811550
H    0.79575679  -6.77095825  -1.53496804
H    1.23215675  -5.78490355  -2.90985667
H   -0.37618714  -6.45760341  -2.79251475
C   -0.02988158  -4.78830970  -1.48539526
N   -0.38078789  -3.85157624  -0.92496082
C    3.40697329   3.98919240  -1.71110601
H    2.49355115   4.20823970  -2.22353011
H    4.22747392   4.42314323  -2.24342593
H    3.36783266   4.39652897  -0.72244832
C    3.59704438   2.46310039  -1.63038349
N    3.73856095   1.32685551  -1.57028190
C   -3.85951391  -3.17259424  -1.04123854
H   -3.28400111  -3.60282727  -0.24840518
H   -3.25032999  -3.08332242  -1.91635257
H   -4.69930814  -3.80065332  -1.25380978
C   -4.35591657  -1.77792691  -0.61687143
N   -4.72551091  -0.73953369  -0.30091083
C   -5.54386853   2.38817327   0.73568675
H   -5.99963150   1.44477755   0.95290740
H   -5.71080411   2.63682991  -0.29154326
H   -5.97314861   3.14381803   1.35988119
C   -4.02980300   2.30051446   1.00312178
N   -2.90251239   2.23524849   1.20223932
C   -2.78472485   1.42814188  -2.41239255
H   -3.82004346   1.19439674  -2.27682422
H   -2.63342571   1.81990794  -3.39653025
H   -2.48591261   2.15719295  -1.68844858
C   -1.94246241   0.15141904  -2.23302482
N   -1.31535974  -0.79915914  -2.09947739
Na   0.19446669  -1.56648704  -0.36341697
