73
Energy:   -664.70594372
C   -3.35789199  -0.28668129   1.11463148
H   -2.79798030   0.00846072   0.25190889
H   -3.11453877   0.35598514   1.93478887
H   -4.40419244  -0.21398750   0.90280589
C   -3.00810188  -1.74105172   1.48076470
N   -2.74766724  -2.82389661   1.75336753
C   -3.52972156  -4.36585176  -1.43528078
H   -4.37510309  -4.91955237  -1.78691394
H   -3.42683956  -4.50431318  -0.37927755
H   -2.64581872  -4.71303401  -1.92831155
C   -3.73323699  -2.86997028  -1.73945191
N   -3.88476348  -1.75621853  -1.96592114
C   -1.82534280  -1.46526396  -4.77331691
H   -1.62438804  -1.49129166  -5.82395477
H   -1.43651060  -0.55898012  -4.35815642
H   -2.88215291  -1.50722352  -4.61117233
C   -1.15317735  -2.67178650  -4.09207029
N   -0.65271962  -3.57009738  -3.58485121
C    2.75871000  -2.29743103  -3.83974787
H    2.16335472  -3.18647883  -3.83294412
H    3.52662397  -2.37673686  -3.09885799
H    3.20511442  -2.17448846  -4.80437594
C    1.86786424  -1.08066893  -3.52752388
N    1.20458907  -0.17473424  -3.29505893
C    0.61348139   1.36681624   3.57542763
H   -0.09154625   0.88898045   4.22312290
H    0.73742164   2.38690393   3.87368760
H    1.55413147   0.86052210   3.63660565
C    0.09597896   1.31506385   2.12590601
N   -0.28932512   1.27653184   1.04667127
C    3.60413986   4.38641240  -0.52062292
H    3.26869485   5.04992175   0.24887832
H    3.96085573   4.95665904  -1.35277174
H    4.39554388   3.77329406  -0.14291315
C    2.43449347   3.49315655  -0.97407778
N    1.56363857   2.82808697  -1.31169554
C    3.97043519  -0.81613118   1.88552000
H    4.76299505  -0.10214832   1.96905156
H    4.38396017  -1.79519838   1.76173146
H    3.37273310  -0.79095360   2.77266001
C    3.09481723  -0.47084417   0.66663933
N    2.44287987  -0.21376229  -0.24087273
C    0.11192436  -3.95187032  -0.09430878
H    1.03949686  -3.94639681   0.43905739
H    0.20557358  -4.56471496  -0.96640416
H   -0.65938325  -4.34333584   0.53556297
C   -0.24776580  -2.51428963  -0.51333712
N   -0.51557147  -1.44394546  -0.82532277
C   -0.64059276  -3.63649945   4.26625261
H    0.00962212  -4.20518352   4.89769478
H   -1.19027621  -4.29924140   3.63102013
H   -1.32194792  -3.07415836   4.86993029
C    0.19536071  -2.67351558   3.40286169
N    0.81776606  -1.95653032   2.76002791
C    3.58220355   4.72108832   3.84520946
H    4.39201906   5.35338509   3.54637871
H    3.69572854   4.45953164   4.87651895
H    2.65600901   5.23913638   3.70850182
C    3.58631123   3.44189552   2.98774291
N    3.58936959   2.48947833   2.34932008
C   -1.28136898   4.55338753   0.02676696
H   -1.92001644   5.40780706   0.11041417
H   -1.84929279   3.66459955   0.20681573
H   -0.86276529   4.51595328  -0.95723951
C   -0.14728267   4.65672992   1.06347743
N    0.69709613   4.73367303   1.83535549
C   -4.22063316   1.41960060  -2.95052294
H   -4.57278997   2.41347791  -3.13243954
H   -4.84990610   0.94511637  -2.22679691
H   -4.24223027   0.86097068  -3.86286349
C   -2.77702171   1.47607241  -2.41723417
N   -1.70218736   1.51811823  -2.02017644
Na   0.42111325   0.73164146  -1.19629133
