73
Energy:   -663.70028619
C    3.72985008   1.28052611   2.65514019
H    4.36163437   1.51260283   3.48693895
H    3.22046262   2.16580766   2.33623568
H    4.32455294   0.90171112   1.85032543
C    2.69776073   0.21757400   3.07528824
N    1.92932331  -0.57384217   3.38810756
C    0.53224807   3.04733699  -5.10725534
H    0.22642277   3.98821273  -5.51483835
H    0.26515665   2.26207910  -5.78322229
H    1.59251130   3.04873719  -4.96324487
C   -0.16916784   2.82134798  -3.75501842
N   -0.69140386   2.65308889  -2.74821657
C   -0.77675082   1.69413056   4.30620479
H   -1.69609126   1.32385647   3.90295495
H   -0.98528677   2.35251795   5.12347946
H   -0.18276664   0.87388990   4.65158453
C   -0.00834376   2.45999752   3.21322795
N    0.56377023   3.03022029   2.39945701
C   -5.06621599  -0.50835907   2.08856718
H   -4.43812879  -1.30256552   2.43446131
H   -6.04905069  -0.62844901   2.49416976
H   -4.66173824   0.43013053   2.40563835
C   -5.13779052  -0.54317924   0.55062549
N   -5.19108100  -0.56910444  -0.59444200
C    2.12810441   2.54414171  -0.67628672
H    1.69306667   3.39542333  -0.19570172
H    2.06920555   2.66500935  -1.73780499
H    3.15347435   2.45474281  -0.38384286
C    1.36323630   1.27363883  -0.26107689
N    0.79375723   0.32769168   0.04806570
C   -0.29431364  -3.02861253   4.63707173
H   -0.88437981  -3.09697009   5.52704327
H    0.67929580  -2.65861427   4.88219421
H   -0.20600823  -3.99780486   4.19236118
C   -0.97342424  -2.06783548   3.64343383
N   -1.47905294  -1.35249330   2.90362526
C    1.63816523  -1.80128712  -2.76058517
H    2.28289096  -2.54660075  -3.17740228
H    0.62920572  -1.99474951  -3.05970404
H    1.70510988  -1.82836589  -1.69302522
C    2.06604011  -0.41117575  -3.26666173
N    2.38461240   0.62382534  -3.64345873
C    3.18843127  -3.23339236   1.49685621
H    3.85626567  -2.67179231   0.87758019
H    3.41281129  -4.27595790   1.40962204
H    3.30453217  -2.92759719   2.51563439
C    1.73720839  -2.98127761   1.04742292
N    0.65670698  -2.79356671   0.71279940
C    5.80608833   0.52982273  -2.53669218
H    5.17867352   0.99617515  -3.26728527
H    6.33726754  -0.28171999  -2.98851753
H    6.50462939   1.24595607  -2.15709697
C    4.93921717  -0.00405888  -1.38122482
N    4.29379219  -0.40155800  -0.52092685
C   -4.40943352  -4.04580439  -1.37766154
H   -3.87143376  -4.38685409  -2.23739496
H   -5.13978617  -3.32352509  -1.67732252
H   -4.89856596  -4.87511362  -0.91086957
C   -3.42860231  -3.40090355  -0.38083004
N   -2.69832889  -2.92074555   0.36135632
C   -2.09793942   3.61812152   0.11131500
H   -2.63914107   4.19979713   0.82801189
H   -2.52340420   3.76265396  -0.85976131
H   -1.07359267   3.92717924   0.10150985
C   -2.18095612   2.12811005   0.49154396
N   -2.24276582   1.01872879   0.77464170
C   -3.35542177   0.58563651  -3.24399227
H   -4.33185807   0.15636816  -3.15913348
H   -3.06423255   0.60883100  -4.27334640
H   -3.36883939   1.58217022  -2.85458296
C   -2.34986510  -0.26418582  -2.44508188
N   -1.60118246  -0.89691717  -1.85025679
Na  -1.07913734  -1.11281218   0.51926965
