73
Energy:   -666.02619730
C   -0.07112478   0.26876640  -3.08243375
H    0.58933268  -0.34724617  -3.65621474
H   -0.02043092   1.27589972  -3.44022097
H   -1.07280067  -0.09450838  -3.18029051
C    0.34701416   0.22868894  -1.60082866
N    0.65833761   0.19884945  -0.49770633
C    0.48541537  -3.80296339  -4.60989685
H    0.02440047  -3.46516170  -5.51447159
H    0.53063804  -4.87200682  -4.61027146
H    1.47609828  -3.40409309  -4.54395027
C   -0.34199892  -3.32459610  -3.40235790
N   -0.95804648  -2.96842992  -2.50329026
C   -1.49344709   0.58659869   6.05417307
H   -2.51987216   0.78534168   5.82646056
H   -0.96543402   1.51151049   6.15732078
H   -1.43129667   0.03639417   6.96976654
C   -0.86555544  -0.23874249   4.91568109
N   -0.39806155  -0.85324652   4.06802206
C    3.44556693   1.71805380  -3.42658976
H    2.63933480   2.37341566  -3.68230595
H    3.19765435   0.71804548  -3.71541809
H    4.33281410   2.02753878  -3.93836178
C    3.68577507   1.76866014  -1.90628090
N    3.86462094   1.80633886  -0.77434184
C    1.21215558   3.71433280   0.45953286
H    0.38713691   4.14083773   0.99088766
H    2.08212441   4.31978463   0.60609820
H    1.39946829   2.72634449   0.82517222
C    0.87787005   3.65105098  -1.04241541
N    0.62897928   3.60393479  -2.16068417
C   -3.58871722   2.41798474   1.72071167
H   -4.07898398   2.40350474   2.67167382
H   -4.09370094   1.75567561   1.04896979
H   -3.60872906   3.41160711   1.32421048
C   -2.12749581   1.96198089   1.88950883
N   -1.03955005   1.62246530   2.01518599
C   -2.63224735   4.04136786  -3.05194648
H   -1.74443709   4.03189705  -3.64910930
H   -2.64126794   4.91919750  -2.44020074
H   -3.49123111   4.04240751  -3.68994720
C   -2.66075311   2.79008174  -2.15468929
N   -2.68197694   1.85844235  -1.48664053
C    0.83795973  -4.75663442  -0.23912396
H    1.39624614  -4.67562001  -1.14832863
H   -0.20334804  -4.84949997  -0.46705646
H    1.16275440  -5.61998207   0.30312907
C    1.06568827  -3.49700017   0.61706600
N    1.23524252  -2.55914521   1.25453835
C    4.12150879  -1.54645683  -0.30955446
H    3.55233508  -0.94053949   0.36409652
H    5.03902665  -1.04998283  -0.54740657
H    4.33467543  -2.48834233   0.15121749
C    3.31335156  -1.77746570  -1.59994850
N    2.71164176  -1.94946229  -2.56070552
C   -3.60925790  -1.33776964  -1.07061122
H   -4.34194607  -0.58819982  -0.85563841
H   -4.08860719  -2.29038699  -1.15803849
H   -3.11594563  -1.10099716  -1.99011157
C   -2.57482903  -1.38630843   0.06921372
N   -1.80464972  -1.42244777   0.91786521
C    4.67800684   1.83581306   2.58263675
H    4.75077579   2.37406809   3.50452958
H    4.77283978   2.51736646   1.76325237
H    5.45971005   1.10688855   2.53255438
C    3.31171469   1.12930589   2.50718226
N    2.29444808   0.60327919   2.45100297
C   -3.55603237  -2.95882490   3.54961047
H   -3.79340320  -3.38150806   4.50349422
H   -2.52521311  -3.13888680   3.32625322
H   -4.16818492  -3.41037788   2.79710249
C   -3.81696338  -1.44142116   3.58124739
N   -4.01123837  -0.31164510   3.60480253
Na   0.23411532  -0.43382174   1.78321792
