73
Energy:   -663.70506228
C    5.51545359   1.92584490   1.93251622
H    5.96579702   1.66145967   0.99860433
H    6.19639900   1.71266610   2.72986635
H    5.28156653   2.96996935   1.93278771
C    4.22386354   1.11041999   2.12867268
N    3.26221604   0.50329907   2.27472008
C    2.05977983  -0.99648791  -2.85540987
H    2.61866860  -1.76919961  -3.34065222
H    1.68468757  -1.36026113  -1.92166797
H    2.69472001  -0.15318232  -2.68052205
C    0.88140892  -0.57452806  -3.75262328
N    0.00405822  -0.26035978  -4.42063944
C    1.35308504   2.90002802   4.51278140
H    1.66423968   1.88132180   4.61437184
H    0.29037289   2.93822389   4.39410934
H    1.63415879   3.44777882   5.38791893
C    2.03023115   3.52287937   3.27782013
N    2.53439720   3.98662051   2.35833533
C   -2.88681419  -0.15524342   3.70140720
H   -3.69918002   0.01461915   4.37676536
H   -2.09572616   0.53289460   3.91481967
H   -2.52936941  -1.15698380   3.81823406
C   -3.37064422   0.05163482   2.25409593
N   -3.73087766   0.20566507   1.17650690
C   -2.34591746   3.40793899   0.48740189
H   -1.91263241   4.16057422  -0.13766168
H   -2.94938196   3.87249565   1.23901136
H   -2.95370035   2.75762473  -0.10639134
C   -1.22623125   2.59205753   1.15988998
N   -0.39257397   1.98459670   1.66058793
C    0.82592448  -3.06731800   4.51707565
H    0.09185924  -3.73383244   4.11482336
H    0.71558078  -3.01474411   5.58007111
H    1.80445288  -3.42782866   4.27746488
C    0.63289236  -1.66483418   3.91095872
N    0.48917118  -0.62062122   3.45967712
C   -1.42764601  -3.45397973  -5.12933565
H   -0.69520520  -4.06141784  -5.61867152
H   -1.39092876  -2.46123010  -5.52682669
H   -2.40083084  -3.86773223  -5.29248966
C   -1.13399942  -3.41304588  -3.61814536
N   -0.91536618  -3.38256877  -2.49299550
C    1.06776516  -4.61168658   0.00217694
H    1.16329536  -4.70875827  -1.05912003
H    0.04664913  -4.76320486   0.28371441
H    1.68282970  -5.34274220   0.48399889
C    1.51468451  -3.20172676   0.43098506
N    1.84743628  -2.15194759   0.75025220
C    1.97936260   4.15407428  -1.02769353
H    2.31295194   4.33135684  -2.02878754
H    2.61336937   4.67710665  -0.34258649
H    0.97347028   4.50259966  -0.91994476
C    2.03448061   2.64452561  -0.72798563
N    2.07551848   1.52059801  -0.50483949
C   -3.50227645  -3.23650125   0.05915458
H   -3.09080578  -3.56067895  -0.87385180
H   -3.97202985  -2.28384471  -0.06998238
H   -4.22641322  -3.94848042   0.39621644
C   -2.37617526  -3.11632299   1.10273174
N   -1.53774173  -3.02684481   1.87972236
C   -2.64323800  -0.15906542  -2.11773524
H   -2.98153866  -1.12723253  -2.42286683
H   -2.33130985   0.39695111  -2.97706378
H   -3.44074133   0.35933843  -1.62768935
C   -1.45747056  -0.31199098  -1.14708116
N   -0.57461279  -0.42585101  -0.42438508
C   -0.76409285   2.97920659  -5.13178703
H   -1.33570613   3.81794535  -5.47042509
H   -1.17524213   2.07939620  -5.53945924
H    0.25066032   3.08566102  -5.45403314
C   -0.81013551   2.91388916  -3.59386190
N   -0.84441635   2.86525737  -2.44880673
Na   1.10351366   0.10375930   1.22377039
