73
Energy:   -663.54912296
C    2.72495475  -0.14070418   2.12840384
H    3.73975869  -0.03722076   1.80534915
H    2.17221814  -0.69217093   1.39678526
H    2.69939020  -0.66215195   3.06239408
C    2.09671594   1.25455440   2.30209751
N    1.62896359   2.29338783   2.43142034
C    2.73908315   1.05362106  -3.98488496
H    3.55367465   0.83114397  -3.32773596
H    3.10905866   1.18265151  -4.98055979
H    2.03613922   0.24710998  -3.96731243
C    2.04590472   2.34888975  -3.52295132
N    1.52980186   3.31327616  -3.17902073
C   -0.83406609   3.96523991   4.10213093
H    0.10101658   4.28390081   3.69106427
H   -0.65591996   3.35647848   4.96385744
H   -1.41039568   4.82173817   4.38347419
C   -1.60680100   3.15004912   3.04859178
N   -2.18213726   2.54310252   2.26418399
C   -1.79508750  -0.55739009   3.65855226
H   -2.62625534   0.09841435   3.50369505
H   -1.11280486  -0.11098031   4.35145037
H   -2.14437781  -1.48911088   4.05198808
C   -1.07808593  -0.80277362   2.31791970
N   -0.54424567  -0.98547282   1.31975782
C   -0.18072372   4.14797603  -0.12835472
H    0.19194551   4.70608586  -0.96174013
H    0.38808610   4.38894431   0.74530927
H   -1.20864997   4.39562810   0.03576467
C   -0.05630416   2.64146436  -0.42253554
N    0.03633186   1.51979794  -0.64156652
C   -0.30204664  -4.38346809   2.48794225
H   -0.28437934  -3.94807346   3.46519327
H   -0.31507845  -5.45001481   2.57283836
H   -1.17787358  -4.05637005   1.96752594
C    0.95182004  -3.94585675   1.70825342
N    1.88538078  -3.62003522   1.12773965
C    4.27811745  -2.01667866  -0.96159896
H    4.70775473  -2.53567198  -1.79283775
H    4.28119685  -2.65462771  -0.10258171
H    4.85179349  -1.13742404  -0.75494417
C    2.82966168  -1.61701519  -1.29900817
N    1.75122051  -1.31944756  -1.55022467
C    0.73152694  -5.09162978  -1.99640613
H    1.61049367  -5.02751194  -1.38960585
H    1.00101101  -4.98763208  -3.02667886
H    0.26184206  -6.04098285  -1.84466968
C   -0.24539031  -3.96722973  -1.60530870
N   -0.97274962  -3.13006278  -1.31411889
C    3.55173038   4.07276025  -0.21368557
H    2.96675990   4.48470592  -1.00930512
H    4.49487838   4.57593486  -0.16692830
H    3.03303269   4.20040150   0.71343875
C    3.78275984   2.57196045  -0.47025011
N    3.95477178   1.45454679  -0.66127407
C   -4.30179890  -3.66358911  -0.74412255
H   -5.36444368  -3.78253446  -0.78334316
H   -3.83032891  -4.60608553  -0.92936732
H   -3.99412565  -2.95857708  -1.48789288
C   -3.89376786  -3.15059579   0.64941559
N   -3.58997021  -2.76864895   1.68696807
C   -4.73795584   0.69387125   0.93369405
H   -4.68252213   0.08975066   1.81509384
H   -5.70815666   0.59441732   0.49355953
H   -4.56672630   1.71803173   1.19190877
C   -3.66781569   0.23246631  -0.07303607
N   -2.87104770  -0.11107065  -0.82259240
C   -1.71851980   2.28107775  -4.39380683
H   -2.75661092   2.38668382  -4.15692213
H   -1.59333193   2.28153240  -5.45645771
H   -1.17115047   3.09688327  -3.96984072
C   -1.19242327   0.95427712  -3.81551406
N   -0.80072048  -0.03358626  -3.38494881
Na  -0.54400654  -0.75035995  -1.08382800
