73
Energy:   -663.94791612
C    4.44365995   1.36784116  -2.04161042
H    4.77940239   2.03805662  -2.80514721
H    4.64991780   0.35996273  -2.33578360
H    4.95508562   1.58419808  -1.12698888
C    2.92751134   1.54243150  -1.83566966
N    1.79866978   1.67242194  -1.68233741
C    2.53247876  -1.70906764   2.69663881
H    1.83094725  -2.22741075   3.31637596
H    2.95549654  -0.89209352   3.24299798
H    3.31074161  -2.38078882   2.39999648
C    1.81321231  -1.17209572   1.44527278
N    1.27768575  -0.77229572   0.51357389
C    1.68324432   2.66173573   1.98106344
H    1.29767733   3.06749498   1.06914365
H    1.83395116   3.45139443   2.68719777
H    0.98594296   1.95489867   2.37987576
C    3.02486246   1.95854325   1.70324857
N    4.02375815   1.43498449   1.49640277
C    0.70934840  -4.27390275  -0.48050972
H    1.65710203  -3.78382396  -0.56104549
H    0.04497794  -3.89039242  -1.22645262
H    0.83853945  -5.32620373  -0.62497919
C    0.11554885  -4.01669084   0.91693227
N   -0.32656190  -3.82518487   1.95739136
C   -2.84035983   2.33134201   1.99161409
H   -2.33183848   2.57853727   2.90001969
H   -3.51747831   1.52242392   2.17067044
H   -3.38663061   3.18374153   1.64534486
C   -1.81148258   1.91298412   0.92484876
N   -1.04543669   1.60149765   0.13059348
C   -3.33652160  -1.93371373   1.32581955
H   -3.03506366  -2.80841045   1.86334065
H   -4.33547863  -2.06340232   0.96503594
H   -3.29961052  -1.08494851   1.97630727
C   -2.38576696  -1.70973670   0.13523149
N   -1.67788692  -1.54297563  -0.75121544
C    6.31347356  -0.98975862   0.97330464
H    5.89459894  -0.71826684   1.91973818
H    6.74840094  -0.12629195   0.51486971
H    7.06760994  -1.73497893   1.11761022
C    5.20497496  -1.55069119   0.06325765
N    4.37964737  -1.96833098  -0.61431369
C    3.30665842  -2.91596523  -3.77809939
H    3.93612937  -2.28137389  -4.36628333
H    2.90124894  -3.68890475  -4.39705555
H    3.88049852  -3.35513181  -2.98896104
C    2.15827456  -2.08477417  -3.17648826
N    1.30325059  -1.46591465  -2.72856143
C   -0.82003466   4.21697761  -2.34764341
H   -0.15020227   3.90469311  -1.57388431
H   -0.68289887   5.26089184  -2.53826333
H   -0.61794139   3.66193700  -3.23982462
C   -2.27233143   3.96282084  -1.90285309
N   -3.35363239   3.77358956  -1.57168649
C   -1.21603024  -2.28635380   4.85327816
H   -2.16752262  -2.70336085   4.59702135
H   -1.21005506  -2.02194000   5.89007551
H   -0.44817938  -3.00726394   4.66461785
C   -0.96032308  -1.02915964   4.00141158
N   -0.76993747  -0.09312144   3.36715818
C   -6.51274476   2.73360331  -0.56983062
H   -7.01425599   2.62038147  -1.50821619
H   -5.93690189   3.63538307  -0.57969725
H   -7.23571650   2.78068136   0.21756675
C   -5.57918622   1.53091006  -0.33831950
N   -4.88410946   0.63545027  -0.16594895
C   -4.09313886   0.72574867  -3.55892982
H   -4.52740393   1.67186835  -3.31160096
H   -4.54026843  -0.03954534  -2.95951400
H   -4.26464598   0.51415878  -4.59368299
C   -2.57774473   0.77002620  -3.28833767
N   -1.44946491   0.80299283  -3.08686952
Na   0.03025898   0.04766169  -1.35824245
