73
Energy:   -663.89502954
C    0.70853624   6.48511965   1.46745707
H   -0.01654829   7.24925927   1.27972522
H    1.61287683   6.93160806   1.82482983
H    0.33004226   5.80748557   2.20397147
C    0.99529040   5.71800543   0.16326851
N    1.20879190   5.14685402  -0.80775916
C    4.51607992  -3.23412768   0.83511150
H    5.50276406  -3.18303198   0.42432711
H    4.12481786  -4.22103579   0.70159938
H    4.55201280  -3.00292757   1.87921610
C    3.60739911  -2.22001090   0.11576017
N    2.93084495  -1.46495485  -0.41982960
C   -3.02271526   0.74533787   3.29750894
H   -3.90562781   1.06810027   3.80857649
H   -2.24641367   1.46876418   3.43502005
H   -2.70609226  -0.19713440   3.69297699
C   -3.32497614   0.59606347   1.79485944
N   -3.55002310   0.48492189   0.67606859
C   -3.75514421   0.49797929  -2.87597543
H   -3.50326937   1.38676932  -3.41589350
H   -4.28912736   0.76019748  -1.98659210
H   -4.36846335  -0.12956367  -3.48828953
C   -2.46639575  -0.25542073  -2.49766891
N   -1.50686394  -0.81636129  -2.21600251
C    0.66059898  -0.16053655   3.30184528
H    1.66452771  -0.49005205   3.47050715
H   -0.00668496  -0.71467220   3.92839529
H    0.58373168   0.88148311   3.53246515
C    0.28671292  -0.38846925   1.82541177
N    0.00833776  -0.55817550   0.72613991
C    0.26545553  -5.49865938   0.68825632
H    1.24125133  -5.70052618   1.07809289
H   -0.08542360  -6.35165772   0.14587569
H   -0.40475985  -5.28887655   1.49553669
C    0.33065195  -4.28237040  -0.25407618
N    0.37919365  -3.37678797  -0.95568556
C    1.21505103   3.86220567  -3.96010046
H    1.67004555   3.95218047  -4.92435391
H    1.93643073   3.50002476  -3.25772206
H    0.85837282   4.81995700  -3.64325328
C    0.03529944   2.87553127  -4.03921939
N   -0.84307924   2.14090733  -4.09812703
C    0.38132136  -4.14645448   4.99424959
H   -0.58020904  -3.67850620   4.95704895
H    0.88833133  -3.84912904   5.88836231
H    0.26099137  -5.20965454   4.98920760
C    1.20867769  -3.71766252   3.76819130
N    1.82468209  -3.39840741   2.85533517
C    3.03121692   2.53207681   0.36548960
H    3.44999212   3.41527107  -0.06982110
H    3.81995399   1.88235512   0.68275078
H    2.42958617   2.80076699   1.20854661
C    2.15919890   1.80933652  -0.67798108
N    1.50994185   1.27122353  -1.45489243
C   -3.09066580  -2.93240974   0.31543550
H   -2.38283347  -2.70749867  -0.45481679
H   -3.90202183  -2.23642145   0.26852304
H   -3.46425619  -3.92555058   0.17759290
C   -2.40397695  -2.82843581   1.68993463
N   -1.89270589  -2.75102249   2.71331170
C   -1.53835333   2.87661584  -0.68958548
H   -1.24800888   3.75971273  -1.21943469
H   -2.60321544   2.85619594  -0.58686837
H   -1.21575412   2.01275513  -1.23233175
C   -0.88792742   2.87831954   0.70631682
N   -0.40365576   2.87958803   1.74562953
C    0.22840133  -0.42542762  -6.19230079
H   -0.70419129   0.07046637  -6.02124427
H    0.06353035  -1.30036203  -6.78577061
H    0.89419747   0.23487666  -6.70767721
C    0.84968090  -0.83023805  -4.84258222
N    1.31225178  -1.13163781  -3.83765539
Na   0.78231049  -1.05414465  -1.50521827
