73
Energy:   -667.41705234
C    4.00921185   0.86847665   3.37720125
H    4.56521075  -0.00808274   3.63683378
H    3.19262689   0.98763354   4.05829575
H    4.64775366   1.72527301   3.43254953
C    3.46523714   0.72542353   1.94359484
N    3.06022324   0.61891398   0.87620971
C    3.06088535  -1.84584537  -4.02365262
H    3.03291261  -1.49728861  -5.03490228
H    2.45384597  -2.72215201  -3.93151702
H    4.06963382  -2.08090205  -3.75518668
C    2.52298340  -0.74797220  -3.08720401
N    2.12249095   0.06944428  -2.38997546
C   -0.44258120   2.33515003   3.75730690
H   -0.78404903   3.26217589   4.16830928
H    0.29013321   1.90501251   4.40769940
H   -1.26928445   1.66321450   3.65748972
C    0.18415202   2.58708757   2.37335136
N    0.65078339   2.77466652   1.34293354
C   -2.10183064  -1.10268248   1.79653995
H   -2.64503546  -1.87611163   1.29490657
H   -2.77685575  -0.32689344   2.09216057
H   -1.62263432  -1.50789726   2.66318346
C   -1.03817280  -0.52287155   0.84572384
N   -0.24623119  -0.09117597   0.13779802
C   -1.59916485   2.46906415  -4.49199665
H   -2.37804064   1.73700766  -4.44356123
H   -0.95634134   2.25170878  -5.31930171
H   -2.02984050   3.44010253  -4.62045687
C   -0.78349885   2.43793804  -3.18611758
N   -0.17619843   2.41476324  -2.21383126
C    0.55168146  -3.13793464   4.89319376
H   -0.49023364  -3.37456660   4.83558815
H    0.84990637  -3.08813944   5.91958620
H    1.11778328  -3.89616183   4.39367465
C    0.80727643  -1.77774657   4.21779786
N    0.99757851  -0.76502473   3.71493490
C    2.22446564  -2.68167373   0.76823728
H    2.25847577  -3.54063403   1.40536419
H    1.65657372  -1.90842533   1.24203553
H    3.21954064  -2.33293002   0.58629589
C    1.56069102  -3.06024358  -0.56880726
N    1.06648064  -3.34210604  -1.56429770
C   -1.25051386  -1.42062897  -3.11006194
H   -0.59653943  -2.14036667  -3.55637492
H   -0.67005463  -0.65755347  -2.63500199
H   -1.86664098  -0.98116490  -3.86647307
C   -2.14041464  -2.11550397  -2.06276765
N   -2.80298622  -2.63287000  -1.28300945
C    4.50212225   5.38981905  -1.72820392
H    4.33247830   6.15726822  -1.00215787
H    4.27560345   5.76568831  -2.70406796
H    5.52723705   5.08526038  -1.69238844
C    3.59689983   4.18262983  -1.42019974
N    2.92292060   3.28382259  -1.19087662
C   -1.57445412  -5.52183192  -0.14600756
H   -1.06176821  -5.23865033  -1.04147476
H   -2.62076427  -5.32763427  -0.25745903
H   -1.42284454  -6.56509639   0.03705770
C   -1.02463761  -4.70737879   1.03972761
N   -0.61527422  -4.10098141   1.92256135
C   -2.57931588   4.11489185  -0.38783381
H   -2.93372050   3.77371416  -1.33804185
H   -1.52787105   4.30444382  -0.44642485
H   -3.08979427   5.01614500  -0.11940567
C   -2.84782589   3.03598681   0.67774880
N   -3.04774381   2.23269297   1.47112349
C   -5.18199988  -0.14677854  -0.27837290
H   -5.04395714   0.29826206   0.68484216
H   -4.95704085  -1.19145626  -0.22414212
H   -6.19746216  -0.01627776  -0.58934716
C   -4.24294281   0.52842830  -1.29516567
N   -3.54377214   1.03115049  -2.05221410
Na   1.38453302   1.52637523  -0.61357564
