73
Energy:   -665.02323261
C    3.41520259  -0.25059853   1.79056143
H    3.33555502  -0.74981351   2.73361012
H    4.40896944  -0.36316155   1.41022458
H    2.71855090  -0.67870738   1.10041773
C    3.10221128   1.24606387   1.97396835
N    2.86917503   2.36039706   2.11052314
C   -2.46284591   3.87513389  -3.02017305
H   -1.49643927   4.32861485  -3.09306624
H   -2.80980886   3.93538695  -2.00978432
H   -3.14696987   4.38810170  -3.66339736
C   -2.36975450   2.39744813  -3.44370438
N   -2.30044371   1.29724392  -3.75904270
C    0.92239693   3.44927549   4.68571524
H    1.33358759   3.97458333   3.84913046
H    1.69717656   3.24623270   5.39521453
H    0.16523569   4.04887513   5.14624345
C    0.30523136   2.12247713   4.20580614
N   -0.15427647   1.13461544   3.84849199
C    0.30322028  -1.99041303   4.94958776
H    1.07185003  -1.36932816   5.35990724
H    0.31958308  -2.94469320   5.43330328
H   -0.64935072  -1.52832749   5.10445719
C    0.54440840  -2.17591893   3.43994679
N    0.72398392  -2.31403651   2.31595047
C   -0.29168528   2.87962896   0.61098140
H    0.63838961   3.36897054   0.81199307
H   -0.94028358   2.98564994   1.45536217
H   -0.74959901   3.32309679  -0.24840814
C   -0.03774724   1.38448710   0.34327581
N    0.15132117   0.27128602   0.14395683
C   -3.31591210   0.42413584   3.05790210
H   -4.37959171   0.31923257   3.10771353
H   -3.07058804   1.39219767   2.67375176
H   -2.90032144   0.31338395   4.03765591
C   -2.73623073  -0.65876924   2.12898548
N   -2.30463159  -1.46504129   1.43736483
C    4.26513356  -2.30084994  -1.95681377
H    4.30183442  -1.65608143  -2.80994142
H    4.58146758  -3.28344479  -2.23848598
H    4.91408491  -1.92187655  -1.19514427
C    2.82301988  -2.36007102  -1.41978400
N    1.74930068  -2.40416381  -1.01994093
C   -1.32529151  -7.05650404   0.52918730
H   -1.30618229  -7.54110000  -0.42459557
H   -2.28459138  -7.19745537   0.98170865
H   -0.56889968  -7.47727406   1.15825254
C   -1.06075814  -5.55058658   0.34524517
N   -0.86380102  -4.42936258   0.20829189
C    4.06304614   3.61321090  -1.05706618
H    3.89292953   3.85754327  -0.02932000
H    3.32008344   4.08703717  -1.66402103
H    5.03375603   3.95571629  -1.34914745
C    3.98010105   2.08664489  -1.24231279
N    3.91834466   0.95004710  -1.38023732
C   -2.06628519  -1.99372174  -4.59069049
H   -2.47260042  -2.95488218  -4.82728873
H   -1.18372918  -1.82662585  -5.17213088
H   -2.78872589  -1.23647122  -4.81328919
C   -1.71194075  -1.94073698  -3.09294798
N   -1.44811520  -1.90128742  -1.97781060
C   -4.52434961  -0.26410628  -1.41680706
H   -4.31286393  -0.20803169  -2.46419888
H   -5.58305181  -0.23432918  -1.26461614
H   -4.13289068  -1.17847157  -1.02235158
C   -3.86839823   0.92833606  -0.69610667
N   -3.38001261   1.81616358  -0.15951248
C    1.11759541   0.45693410  -3.41733285
H    2.12758105   0.25686318  -3.70853866
H    0.46838574   0.30526515  -4.25424528
H    0.83743181  -0.20434464  -2.62416334
C    1.00157367   1.91492623  -2.93525620
N    0.91519021   3.00046765  -2.57632822
Na  -0.33794107  -2.08508680   0.15331381
