73
Energy:   -664.92478553
C   -3.70342824   0.82559047   1.47562126
H   -4.25352491  -0.09184559   1.50021626
H   -3.87784938   1.32116360   0.54348199
H   -4.02345807   1.45501222   2.27955426
C   -2.20005781   0.52686039   1.62474433
N   -1.08073019   0.30444228   1.73577322
C   -4.77903012  -2.15545583  -2.15221720
H   -5.39522450  -1.90761216  -2.99113209
H   -5.39154662  -2.27718710  -1.28336501
H   -4.25630792  -3.06772728  -2.35076540
C   -3.76293237  -1.02397244  -1.90954311
N   -3.00640141  -0.18153163  -1.72886121
C   -2.60164521   6.56583473   0.89318578
H   -3.49462063   6.79217630   0.34888386
H   -1.74834903   6.83419264   0.30601566
H   -2.59246197   7.11877168   1.80919642
C   -2.55775369   5.05801872   1.20328969
N   -2.52507447   3.93538117   1.43417614
C   -0.46851494  -2.28484924  -2.98132858
H   -1.21723478  -3.03481625  -2.83344930
H    0.33849696  -2.69423974  -3.55231921
H   -0.89325159  -1.45574456  -3.50771561
C    0.05889226  -1.80953120  -1.61475827
N    0.45157089  -1.45563531  -0.59728456
C    3.33546890   0.32301412  -3.31023111
H    2.66028728   1.01556689  -3.76783423
H    3.09518398  -0.67077324  -3.62574487
H    4.33812722   0.55705631  -3.60143489
C    3.20997771   0.41972111  -1.77840222
N    3.11654382   0.49172386  -0.63788600
C    2.59469711  -3.29004425   3.90434993
H    1.95509258  -4.10353654   3.63225341
H    2.42388848  -3.02895669   4.92785215
H    3.61629592  -3.58130027   3.77626831
C    2.29074712  -2.07580128   3.00722764
N    2.06444253  -1.17174219   2.33927932
C    4.34705488  -2.94379163   0.00283507
H    5.38895394  -3.09336012  -0.18945585
H    3.99632309  -3.69914153   0.67464817
H    4.20035566  -1.97939038   0.44250387
C    3.56342650  -3.02940265  -1.32011516
N    2.97997956  -3.09314394  -2.30511174
C   -1.99588177   3.07700237  -1.84212927
H   -2.20763562   2.80726849  -2.85568939
H   -1.82185344   4.13106797  -1.78247246
H   -2.82869148   2.81737459  -1.22251608
C   -0.74295955   2.32181958  -1.36100051
N    0.18989799   1.75955167  -1.00277829
C   -1.41023103  -3.12351481   2.15278410
H   -0.54745314  -2.49835864   2.05432471
H   -1.13605038  -4.03555351   2.64054374
H   -2.15282893  -2.61761874   2.73374591
C   -1.97781658  -3.43873115   0.75632955
N   -2.40040982  -3.67342404  -0.28339434
C    0.26880970   4.36011191   3.40448808
H    0.84097654   4.59213872   4.27838100
H   -0.71145088   4.04333773   3.69369807
H    0.19448951   5.22975711   2.78554315
C    0.96312635   3.23044374   2.62130596
N    1.48007666   2.38935445   2.03819127
C    2.87347305   4.20276004  -0.77172701
H    3.19122644   3.57877924   0.03733475
H    3.60110893   4.96946458  -0.93788737
H    2.76892200   3.61218775  -1.65783791
C    1.51936693   4.84732830  -0.42168650
N    0.51117337   5.32723868  -0.16106543
C    0.53228469  -5.63508804  -1.37460228
H    1.08778146  -5.19256752  -2.17491415
H   -0.50740419  -5.41384003  -1.49705817
H    0.67492721  -6.69548545  -1.38506822
C    1.02386163  -5.06423793  -0.03144098
N    1.38986300  -4.63921408   0.96860366
Na   1.13289282   0.38665360   0.77559328
