73
Energy:   -663.65493624
C   -0.64794749  -2.73135791  -5.86160102
H   -1.66763885  -3.05127129  -5.91437541
H   -0.08538321  -3.20314343  -6.63995759
H   -0.60076962  -1.66909549  -5.98106605
C   -0.05792603  -3.12076781  -4.49345095
N    0.38137177  -3.41070118  -3.47480104
C   -1.85261276  -1.36770501  -1.74193166
H   -1.66078244  -2.40129047  -1.54242630
H   -1.57533611  -1.14165874  -2.75035609
H   -2.89426577  -1.16527660  -1.60452408
C   -1.02857301  -0.49679624  -0.77545537
N   -0.41503797   0.15163493  -0.05586985
C    1.49496442  -4.27489217  -0.44505062
H    2.12184885  -4.56151391  -1.26344177
H    0.47060184  -4.30539543  -0.75270292
H    1.64253839  -4.95094384   0.37108365
C    1.85464030  -2.84545764   0.00098771
N    2.12243533  -1.78117866   0.33308353
C   -1.11032131   0.83517424   4.97898324
H   -0.60293951   0.90959567   5.91809204
H   -2.01399210   0.27627790   5.10513032
H   -1.34458404   1.81608264   4.62143777
C   -0.20279658   0.12067983   3.96040747
N    0.47289683  -0.41129373   3.20203150
C   -1.09346505  -3.43041766   3.74044361
H   -1.76689952  -2.73929723   4.20276250
H   -0.08741561  -3.17824678   4.00345210
H   -1.31253308  -4.42186921   4.07798190
C   -1.25688806  -3.36110277   2.21070888
N   -1.37856392  -3.30949469   1.07175183
C   -2.07645757   2.33574863  -3.27704266
H   -1.92992204   2.88613855  -4.18285636
H   -3.11974490   2.30858356  -3.04100728
H   -1.71331150   1.33725657  -3.40368242
C   -1.30846286   3.01977936  -2.13079396
N   -0.73665589   3.52907132  -1.27735970
C    2.99973769  -1.08511379  -3.02579398
H    3.35064463  -0.74334356  -2.07450139
H    3.74715925  -0.90069409  -3.76892887
H    2.79813029  -2.13474426  -2.97550057
C    1.70912732  -0.33174938  -3.39777106
N    0.74820924   0.22916466  -3.67472490
C    5.99595510   0.35699202   3.74997719
H    6.13566023  -0.64667225   4.09354769
H    5.98920220   1.02296719   4.58743200
H    6.79496368   0.62240858   3.08964513
C    4.65462582   0.46101063   3.00056683
N    3.65594520   0.53845722   2.44259675
C    0.78750550   5.19095363   1.26848671
H   -0.11936679   5.37695700   0.73193702
H    1.62518814   5.41375317   0.64115326
H    0.81978844   5.81078856   2.14007237
C    0.84062368   3.71048146   1.68917733
N    0.88017259   2.60820263   2.00240062
C   -2.72057176   2.48176870   1.50142937
H   -1.91438576   1.87577607   1.85883287
H   -3.42701931   2.63677833   2.28997421
H   -2.33884265   3.42614286   1.17380241
C   -3.41352636   1.77165298   0.32365622
N   -3.92946255   1.24293955  -0.55324942
C   -4.72126958  -1.89796120   0.93910159
H   -5.55924640  -2.39231321   1.38442297
H   -4.10052927  -2.61908959   0.44965864
H   -5.06839921  -1.18199662   0.22370322
C   -3.90900280  -1.17903056   2.03224449
N   -3.30423325  -0.64375402   2.84613907
C    2.35378883   3.41215494  -2.62409425
H    3.32982516   3.68050584  -2.97085217
H    1.84925207   4.28578643  -2.26756967
H    1.79541380   2.98120676  -3.42870601
C    2.47882476   2.38879539  -1.48010944
N    2.57191969   1.62685769  -0.62836074
Na   1.59412145   0.40810496   1.22161953
