73
Energy:   -663.72627617
C    3.00527422  -0.24076748   1.40941698
H    4.06720615  -0.33427111   1.31745060
H    2.53700405  -0.59940631   0.51666823
H    2.66757531  -0.81686423   2.24546188
C    2.63687837   1.23913099   1.62339136
N    2.36259093   2.34098266   1.78270502
C    1.07946107   0.70829676  -2.88697847
H    0.31360376   0.68365704  -3.63380888
H    1.84617326   0.00579006  -3.13904162
H    1.49864525   1.69156271  -2.83827736
C    0.47491772   0.33967546  -1.51940921
N    0.02480772   0.06522015  -0.50119173
C   -0.53547362   2.72428355   3.74563218
H   -0.70895141   2.68983622   4.80091366
H   -1.23534839   3.39375652   3.29079116
H    0.46032724   3.06840478   3.55892299
C   -0.71170795   1.31504153   3.15016734
N   -0.84292242   0.26579678   2.70681670
C   -2.67673056  -4.32433088   4.67987847
H   -3.43811909  -3.96103657   5.33806153
H   -1.74168159  -4.35582381   5.19909971
H   -2.93300874  -5.30831181   4.34670865
C   -2.55782258  -3.38567819   3.46480974
N   -2.46929019  -2.68680860   2.56013584
C    0.61673946   5.20970765   0.96157325
H    0.72245912   6.25528579   0.76035225
H    1.37210132   4.90158152   1.65395019
H   -0.34954997   5.02324444   1.38159148
C    0.76816045   4.41669427  -0.34983876
N    0.88090026   3.82625976  -1.32624461
C    2.07300592  -4.84279581   0.70620817
H    1.76656597  -5.72877591   1.22199301
H    3.11710181  -4.67702018   0.87137873
H    1.89182342  -4.95952722  -0.34185947
C    1.27209874  -3.63823166   1.23457630
N    0.67578695  -2.74137889   1.62797040
C    5.00744612  -1.84891961  -2.56838090
H    5.60289973  -1.47116547  -1.76362194
H    4.92893177  -1.10518238  -3.33361911
H    5.46737260  -2.72732658  -2.97058475
C    3.60148720  -2.19878009  -2.04638745
N    2.55468688  -2.45926711  -1.65773959
C   -0.30825831  -3.24778636  -3.34650093
H    0.65069003  -3.71533801  -3.26456372
H   -0.20139867  -2.29597024  -3.82349797
H   -0.95854771  -3.86722346  -3.92815414
C   -0.90629552  -3.05323845  -1.94076176
N   -1.35156141  -2.90838869  -0.89412505
C    4.30040271   3.78033591  -1.01654982
H    3.71059333   4.31286245  -1.73309748
H    5.32092732   4.09307173  -1.09154934
H    3.93599890   3.98536125  -0.03162670
C    4.20496368   2.26870405  -1.29486713
N    4.13390499   1.14322543  -1.50208702
C   -4.83361253   1.07913671   2.25213305
H   -4.74166471   0.63806710   3.22265012
H   -5.85831824   1.05507662   1.94505257
H   -4.49575618   2.09376220   2.28801204
C   -3.97739752   0.28827213   1.24563960
N   -3.33990652  -0.30056249   0.49625947
C   -2.39333942   2.83038873  -1.86860730
H   -2.50475621   3.78541580  -2.33808549
H   -3.21358763   2.20034308  -2.14271392
H   -1.47622458   2.38093676  -2.18765652
C   -2.37239799   3.00953358  -0.33920592
N   -2.35680615   3.14291506   0.79950293
C   -4.59234044  -1.39491433  -2.45793762
H   -4.38117649  -2.11888151  -1.69887143
H   -5.08964925  -1.87139520  -3.27680819
H   -5.22182341  -0.62911278  -2.05519914
C   -3.27451848  -0.76934714  -2.95150724
N   -2.29334013  -0.30358393  -3.31899226
Na  -1.20822970  -1.36420477   0.97407432
