73
Energy:   -664.39299280
C    1.18967892   1.47692996   1.63700238
H    0.55112729   1.51689545   2.49464727
H    1.36668310   2.46908996   1.27757624
H    2.12078861   1.02375860   1.90638974
C    0.51385910   0.64366732   0.53222143
N    0.01068053   0.02326541  -0.29033821
C    3.79858281  -2.30256785   1.21177692
H    4.65405750  -2.45298810   0.58692735
H    3.85843106  -2.95123303   2.06062953
H    3.77231609  -1.28501602   1.54162147
C    2.51900415  -2.61699670   0.41464897
N    1.56629968  -2.85110327  -0.17884902
C   -3.00756416   2.71728789   4.28504945
H   -3.68550091   2.95064345   3.49079060
H   -2.28769166   3.50297010   4.38193150
H   -3.55190462   2.61737763   5.20080624
C   -2.28447564   1.39442898   3.97074496
N   -1.74610338   0.40950039   3.73673098
C   -1.34511791  -3.14083692   3.16060889
H   -1.56649851  -2.27764895   3.75289035
H   -0.32764175  -3.43120612   3.31975375
H   -1.99354643  -3.94351436   3.44371394
C   -1.55764842  -2.81001169   1.67165441
N   -1.71588704  -2.56369726   0.56306011
C   -1.35665970   5.30498788  -0.54800690
H   -1.78063549   4.85629335  -1.42197368
H   -0.34064604   5.57734978  -0.74405365
H   -1.91653361   6.17911755  -0.28851200
C   -1.40295184   4.30067996   0.61853613
N   -1.43741844   3.55292706   1.48708044
C    0.84293523  -0.31234771   5.85478408
H    1.41692030  -0.75290067   6.64304445
H   -0.19568332  -0.51438289   6.01400839
H    1.00312967   0.74554913   5.84523932
C    1.28110066  -0.91008285   4.50484936
N    1.60733474  -1.35512383   3.49976160
C    3.82741534  -1.39587786  -3.48178990
H    4.31157985  -1.71496532  -2.58253015
H    4.15958478  -0.41089733  -3.73551398
H    4.07062207  -2.07001503  -4.27632665
C    2.30246611  -1.38401249  -3.26733936
N    1.16707208  -1.37517818  -3.10767119
C   -1.18173681  -6.81957255  -3.02619234
H   -1.07950173  -6.91881068  -4.08666392
H   -2.17759063  -7.08392420  -2.73758800
H   -0.48484948  -7.46865054  -2.53839638
C   -0.89859015  -5.36208539  -2.61734134
N   -0.68777460  -4.27691995  -2.31293319
C    4.52439246   3.04452470  -0.57554636
H    3.81335065   3.60302033  -0.00335553
H    4.58885576   3.45393280  -1.56201915
H    5.48319935   3.09842825  -0.10365352
C    4.07501622   1.57388341  -0.65846309
N    3.74043518   0.47892412  -0.72019837
C   -3.69225015   0.10754935  -4.50527731
H   -3.76025250   1.13794799  -4.22500154
H   -4.67309473  -0.31885280  -4.53728036
H   -3.23786385   0.02981277  -5.47088034
C   -2.83666968  -0.64987286  -3.47285605
N   -2.19965114  -1.21380812  -2.70417149
C   -3.28747025   0.69981683   0.39617647
H   -3.43410437  -0.31210967   0.08089347
H   -4.15785448   1.04088054   0.91675878
H   -2.43962450   0.75136104   1.04686831
C   -3.04398777   1.59117423  -0.83581309
N   -2.86270398   2.25483032  -1.75308532
C    0.07103022   1.91773244  -3.33631679
H   -0.37303394   1.05181700  -2.89145991
H    0.78201356   1.61386668  -4.07595683
H   -0.69021042   2.51246782  -3.79642720
C    0.78248490   2.74537002  -2.24983242
N    1.31219525   3.36158381  -1.44089542
Na  -0.38571921  -2.08443309  -1.38866733
