73
Energy:   -667.41955661
C    0.31243409  -2.43059361   3.71416588
H    1.30982428  -2.24275005   4.05302835
H   -0.08869825  -3.27408536   4.23619425
H   -0.29640227  -1.57134163   3.90364783
C    0.33053776  -2.72363141   2.20241157
N    0.34401677  -2.94181137   1.07684176
C    2.96285466   1.98069485  -0.13390448
H    3.43917203   2.75472241   0.43081074
H    3.70423791   1.41103334  -0.65422719
H    2.41960046   1.33905953   0.52797020
C    1.99215424   2.61003684  -1.15040305
N    1.26942366   3.07861056  -1.90723245
C   -0.03333729   5.73596734   0.32906147
H    0.44098108   6.69019845   0.42583569
H   -1.06369935   5.82020169   0.60502831
H    0.03814653   5.40338077  -0.68542132
C    0.66406792   4.72002759   1.25269147
N    1.18331780   3.96361426   1.94037600
C   -4.72294344   1.44645091   1.59614753
H   -4.23000158   2.39496400   1.54890945
H   -4.37698111   0.90697717   2.45298896
H   -5.77956541   1.59701332   1.67217421
C   -4.40959200   0.64104128   0.32150005
N   -4.17628761   0.04137719  -0.62753294
C   -0.97499321   1.44681444   2.41194312
H   -0.13505606   1.64708723   3.04384231
H   -1.68375875   0.84458764   2.94097372
H   -1.43433506   2.36992760   2.12599514
C   -0.50267253   0.69673352   1.15262116
N   -0.15100832   0.13826418   0.21499872
C    4.56609778  -2.09469183   1.72335247
H    4.93853820  -3.08421404   1.55893196
H    4.03835857  -2.06221846   2.65358679
H    5.38443977  -1.40598460   1.75331638
C    3.61180951  -1.70847980   0.57802537
N    2.90129851  -1.42092739  -0.27472272
C    1.82218032   1.32253649  -4.88512007
H    1.53075729   2.31246995  -4.60226933
H    1.36087153   1.06725548  -5.81620808
H    2.88611307   1.28043151  -4.99082424
C    1.37428283   0.32578406  -3.80000605
N    1.04080279  -0.41634344  -2.99208934
C    2.03959860  -6.19762163  -3.11961342
H    3.05317757  -6.16459207  -3.46088591
H    1.39411363  -6.42951065  -3.94087813
H    1.94155717  -6.95021679  -2.36536711
C    1.65092411  -4.82823579  -2.53197871
N    1.36153828  -3.80866578  -2.09445796
C    3.03070071   2.51622737   4.30784095
H    3.56120033   3.14576353   3.62435389
H    3.64687943   2.31504968   5.15916370
H    2.13487847   3.00844580   4.62426257
C    2.66965480   1.19128246   3.61087120
N    2.40083971   0.20480075   3.09194555
C   -3.52642065  -3.30878529   0.63720800
H   -4.08508495  -2.81816049  -0.13226045
H   -4.13083763  -4.06803015   1.08790351
H   -2.65100287  -3.75468532   0.21327881
C   -3.11239952  -2.28040864   1.70614577
N   -2.80414197  -1.51473548   2.50201854
C   -1.85744802   1.92482028  -2.47310088
H   -1.25593803   2.49824506  -3.14709638
H   -2.79406311   1.69625288  -2.93722179
H   -1.34980515   1.01550293  -2.22745934
C   -2.10577388   2.73722212  -1.18860195
N   -2.29066377   3.34209222  -0.23223410
C   -3.63204922  -1.61833543  -3.58770074
H   -3.36267324  -0.84053556  -4.27134109
H   -4.47671215  -1.30775149  -3.00892509
H   -3.88061171  -2.50370792  -4.13472115
C   -2.44631976  -1.91052049  -2.64947179
N   -1.56349029  -2.12806555  -1.95091770
Na   0.63338602  -1.77333118  -1.03816835
