73
Energy:   -665.10264142
C    2.53506120  -3.48912375   0.48236154
H    2.18637640  -3.95804563  -0.41398179
H    3.07115603  -4.20249694   1.07278521
H    3.18297274  -2.67567913   0.23053308
C    1.33282044  -2.95825388   1.28510331
N    0.43769755  -2.56299714   1.88278104
C    0.91595731  -1.52816552  -5.02747170
H    0.01273033  -0.95964364  -5.10404897
H    0.86479860  -2.36949784  -5.68659368
H    1.74858753  -0.91308391  -5.29821259
C    1.09119449  -2.02078099  -3.57894764
N    1.22166653  -2.38755560  -2.50045565
C    2.52764412   4.17282089  -4.05143508
H    1.88486071   4.79062186  -4.64308670
H    3.51858288   4.20043440  -4.45414708
H    2.54171087   4.53414869  -3.04438819
C    2.00631413   2.72386202  -4.06968954
N    1.61816026   1.64504628  -4.08328082
C   -1.74892691  -4.15397725  -2.66826776
H   -1.99269356  -3.53580737  -3.50692383
H   -2.44472654  -4.96465069  -2.60851383
H   -0.75876863  -4.54181120  -2.78688694
C   -1.82174167  -3.31872356  -1.37650567
N   -1.87595557  -2.69683923  -0.41473008
C   -0.96780073   3.49324088   0.82646447
H   -1.75733705   4.11480178   0.45877625
H   -0.68492983   3.81799288   1.80596397
H   -1.30387086   2.47833858   0.87038789
C    0.24511064   3.59195854  -0.11730501
N    1.14817830   3.66545832  -0.81998428
C   -1.13746087   2.45548358   4.91665055
H   -0.26095840   3.06298428   4.82955005
H   -1.17787042   2.02597243   5.89582690
H   -2.00668281   3.05828102   4.75544395
C   -1.08977979   1.33173198   3.86474329
N   -1.05427905   0.49504784   3.08155053
C    2.72661969   0.45174284  -1.12236586
H    3.46468693  -0.00688985  -0.49801581
H    2.94129545   1.49535593  -1.22077892
H    2.74108436  -0.00801862  -2.08844518
C    1.33456120   0.27152087  -0.48888880
N    0.29811037   0.13733742  -0.01723633
C   -3.70557596  -4.42524222   3.98593891
H   -4.22763002  -4.13518603   4.87376048
H   -2.84127348  -4.99750116   4.25126895
H   -4.35020093  -5.01731810   3.37046845
C   -3.27037897  -3.16693232   3.21207861
N   -2.94635504  -2.23006339   2.63590445
C    3.93582501   3.07655975   1.43445693
H    4.62604359   3.73383682   1.92075450
H    3.67252542   3.47946861   0.47882265
H    4.38932545   2.11624177   1.30397390
C    2.66867690   2.93282428   2.29775049
N    1.72522753   2.82580670   2.94051179
C    2.09516450  -0.43949034   4.46233606
H    2.70471524  -0.88145148   5.22261129
H    1.19366859  -1.00559906   4.35405331
H    1.85405221   0.56585358   4.73810327
C    2.86237010  -0.43556704   3.12705325
N    3.43358955  -0.43264596   2.13287451
C   -5.12992684  -0.66836328  -1.18674536
H   -5.64552861  -1.40964659  -0.61267736
H   -4.75150049  -1.11165665  -2.08406558
H   -5.80567421   0.12255968  -1.43715592
C   -3.95992362  -0.10179519  -0.36109829
N   -3.08880305   0.32004050   0.25363348
C   -1.45200982   1.75093382  -2.73224960
H   -1.43622710   2.35834692  -3.61298816
H   -0.47392683   1.72524169  -2.29912991
H   -2.14356003   2.16282436  -2.02726479
C   -1.88711892   0.32087346  -3.10266482
N   -2.21107743  -0.74387148  -3.37845579
Na  -1.34864910  -1.05122324   1.26980596
