73
Energy:   -666.42709600
C    2.57274285   1.17780685   1.26491638
H    2.30954689   1.87488167   2.03284525
H    3.24446779   1.64416359   0.57484675
H    3.04766732   0.32558775   1.70431194
C    1.30122805   0.72989273   0.52045478
N    0.35452749   0.39640031  -0.03383071
C    2.94629338  -2.04964745  -3.69571175
H    2.89868284  -2.53359288  -4.64882782
H    3.38535831  -2.71321506  -2.98031039
H    3.54267272  -1.16475272  -3.77440160
C    1.52454870  -1.67167273  -3.24032489
N    0.46599517  -1.39025337  -2.90126867
C    1.53813258   4.59890282   0.06038086
H    1.62258837   5.65402784  -0.09607549
H    2.37931720   4.10471789  -0.37903782
H    1.51314776   4.39491501   1.11045887
C    0.24185952   4.08515747  -0.59333304
N   -0.72327469   3.70265071  -1.08005275
C   -2.63559719  -0.67710974   3.66586828
H   -3.65013065  -0.34025923   3.71227720
H   -1.98120795   0.12256805   3.94369779
H   -2.50123337  -1.49808987   4.33879997
C   -2.31064164  -1.13126402   2.23068613
N   -2.06869746  -1.46940253   1.16212779
C    1.32121878   1.06662279   5.52582842
H    2.29243240   0.89285736   5.93989346
H    0.58329036   0.97051856   6.29467478
H    1.28049889   2.05322810   5.11369866
C    1.04406818   0.03505740   4.41647708
N    0.83771697  -0.73298992   3.59051458
C    2.46997488  -3.12647448   1.85380775
H    1.99527286  -3.28833400   2.79898480
H    3.02610894  -2.21291500   1.88579342
H    3.13231945  -3.94005516   1.64336716
C    1.39949066  -3.03741233   0.75029905
N    0.60246649  -2.97110151  -0.07131334
C    5.94353132   0.41566071  -1.47724294
H    6.54882188  -0.08625462  -2.20291815
H    6.55623984   0.73196880  -0.65905192
H    5.48112793   1.26916686  -1.92736454
C    4.85603641  -0.54561615  -0.96255700
N    4.04634702  -1.26133047  -0.57934992
C   -1.87829478  -5.89256326  -1.84181992
H   -1.87370808  -6.20122230  -2.86632406
H   -2.65894666  -6.40421350  -1.31866051
H   -0.93530496  -6.12778361  -1.39422560
C   -2.11854191  -4.37338695  -1.76445937
N   -2.29741682  -3.24229114  -1.70686093
C    0.53069472   1.94241856  -3.66287412
H   -0.26341087   1.53398151  -3.07340346
H    0.64778445   1.36245310  -4.55440603
H    0.29778317   2.95376679  -3.92330848
C    1.84031233   1.90939381  -2.85329948
N    2.81538216   1.88480538  -2.25053437
C   -5.32760964  -1.84463881  -0.54629897
H   -4.79932603  -2.63422833  -0.05399318
H   -4.93860519  -1.71744794  -1.53493294
H   -6.36738018  -2.09115666  -0.60111920
C   -5.15132611  -0.53647617   0.24694412
N   -5.02007501   0.43751038   0.83754967
C   -2.47613412   2.49625893   1.56452211
H   -2.41911973   1.65963136   0.89991407
H   -2.68957061   3.38270242   1.00455614
H   -3.25392812   2.33070092   2.28043141
C   -1.13155892   2.66284131   2.29662034
N   -0.13046156   2.78686947   2.84170075
C   -3.92635126   2.55541629  -2.01426147
H   -4.57613633   2.62845933  -1.16729968
H   -4.50985956   2.53753768  -2.91097631
H   -3.26894640   3.39942819  -2.03328412
C   -3.09750084   1.26127226  -1.91527566
N   -2.48038402   0.29772320  -1.84157623
Na  -0.97701640  -1.36277224  -0.97508294
