73
Energy:   -665.98048725
C    5.65980246  -0.47307814  -1.27421297
H    5.96905593   0.39616925  -0.73229836
H    4.85366187  -0.21680896  -1.92947059
H    6.48164947  -0.84626846  -1.84883942
C    5.19210229  -1.55586749  -0.28404945
N    4.84387826  -2.36205337   0.45317230
C    1.91757179   3.22580290  -3.24402488
H    1.17234665   3.98203494  -3.37688859
H    2.54288430   3.18498364  -4.11132941
H    2.51276976   3.45846427  -2.38582492
C    1.23351500   1.86128242  -3.03969631
N    0.72420363   0.84533490  -2.88756440
C   -0.99929105  -0.38191206   5.62508769
H   -1.08225623  -1.42973746   5.82528480
H   -1.96521200   0.01387489   5.39003772
H   -0.61005686   0.11640301   6.48826666
C   -0.04988366  -0.16066490   4.43291517
N    0.65699329   0.00406366   3.54528854
C   -5.09173061   1.08307410   0.78001462
H   -6.15903113   1.11895695   0.71306536
H   -4.68513803   2.03487927   0.50863210
H   -4.80506917   0.84569210   1.78319660
C   -4.55338232   0.00319238  -0.17687440
N   -4.15255755  -0.80082865  -0.88932176
C   -0.98583172   5.79145692  -0.47272081
H   -1.08402649   5.99317830  -1.51893611
H   -0.64864389   6.67349876   0.03047462
H   -1.93437395   5.49510433  -0.07605736
C    0.03539046   4.65817220  -0.26207659
N    0.79573680   3.81439021  -0.10524239
C    2.48826847  -2.73732517   2.79550980
H    3.28630574  -3.42749355   2.61745280
H    1.87855578  -3.09644039   3.59812165
H    2.89419886  -1.78213787   3.05577280
C    1.63298400  -2.60189659   1.52203127
N    0.99618584  -2.50106386   0.57386861
C    3.48179965  -4.73537969  -1.91093252
H    2.68052890  -5.43093702  -1.77285512
H    4.09028077  -4.71300275  -1.03107510
H    4.07602243  -5.03739815  -2.74794102
C    2.90403496  -3.33181984  -2.17133166
N    2.47386289  -2.28680573  -2.36521065
C   -3.30649761  -3.23548019  -3.18133167
H   -3.18693538  -4.26874960  -3.43224877
H   -3.62596335  -2.69299899  -4.04652234
H   -4.04027091  -3.13868827  -2.40860458
C   -1.96269858  -2.66841906  -2.68711933
N   -0.96217913  -2.24621626  -2.31915578
C    2.85297911   1.98014120   1.96957957
H    3.12830784   1.38237153   2.81324164
H    1.95152959   2.51315916   2.18907834
H    3.63619979   2.67697129   1.75535471
C    2.62687232   1.07041923   0.74774421
N    2.45852553   0.39308988  -0.16196776
C   -2.35133751  -2.91798603   1.20035399
H   -1.91951569  -2.50282593   0.31374687
H   -3.23946133  -3.45762376   0.94554760
H   -1.65032691  -3.58211371   1.66124189
C   -2.70353560  -1.78298189   2.17980390
N   -2.96576308  -0.93791972   2.90904887
C   -2.63262535   1.17274705  -3.23970547
H   -2.15531363   0.30073463  -2.84389230
H   -2.06576957   1.54499688  -4.06735496
H   -3.61959497   0.92129320  -3.56767043
C   -2.71494766   2.25393906  -2.14615763
N   -2.77624037   3.05893566  -1.33196157
C   -1.50128027   2.10080192   1.84327783
H   -0.61271634   2.52357289   2.26353850
H   -2.08018815   1.64408236   2.61863066
H   -2.07676866   2.87230447   1.37584225
C   -1.11867975   1.03927369   0.79524413
N   -0.83381628   0.24891766   0.01493540
Na   0.77990633  -0.95683763  -1.28593608
