73
Energy:   -664.48839058
C    2.70560699  -2.63504535   1.62272806
H    3.07970119  -2.05672030   2.44156494
H    3.43372287  -2.65620401   0.83895599
H    2.50734482  -3.63349234   1.95241704
C    1.40459541  -1.99993004   1.09775434
N    0.43593315  -1.52705782   0.70688754
C    3.87781278   2.62000978  -2.91275416
H    4.57083161   3.42321876  -3.05232638
H    3.28481481   2.50309220  -3.79569400
H    4.41500217   1.71462691  -2.72142062
C    2.96070474   2.93533826  -1.71647627
N    2.27787611   3.17011464  -0.82579301
C   -0.96645462   3.55066807  -1.83186593
H   -0.44232952   3.44524786  -2.75873142
H   -0.43842908   4.23313611  -1.19915313
H   -1.95051688   3.92665931  -2.01935232
C   -1.06445118   2.17900178  -1.13866445
N   -1.13741407   1.15773389  -0.62254445
C    2.27429419  -2.62105940   5.93050063
H    3.19952484  -3.09095660   5.66964617
H    1.97184775  -2.94504820   6.90438794
H    2.40169317  -1.55867184   5.93163012
C    1.19458929  -3.00750160   4.90263889
N    0.39069991  -3.29522538   4.13734911
C   -5.85812208   1.20757112  -1.77470674
H   -5.50146302   2.21319875  -1.85475395
H   -6.79538896   1.20157054  -1.25857315
H   -5.98752242   0.79602457  -2.75388194
C   -4.83623929   0.36117330  -0.99306342
N   -4.07540110  -0.26900835  -0.41109443
C   -2.36088806  -1.41948918  -4.61712103
H   -2.37451645  -2.36879946  -5.11060300
H   -1.66230199  -0.77324340  -5.10624575
H   -3.33729911  -0.98353952  -4.65544147
C   -1.94141234  -1.61074483  -3.14774654
N   -1.62909360  -1.75314336  -2.05373044
C    1.66293601  -0.49577904  -2.29514404
H    2.69036043  -0.63353781  -2.56032654
H    1.17174428  -1.44591117  -2.26550107
H    1.60205125  -0.03260718  -1.33251017
C    0.97878911   0.40335099  -3.34161822
N    0.46941064   1.07279416  -4.12076582
C    4.80492444   1.95122163   1.86849353
H    4.32584941   2.88719444   1.67014488
H    5.86576327   2.07135061   1.79715554
H    4.54879891   1.62113476   2.85355265
C    4.33624794   0.90630100   0.83889011
N    3.98729697   0.12831009   0.07230356
C   -1.99375268   2.76875695  -5.96416936
H   -1.05818908   2.26582763  -6.09333217
H   -1.82050951   3.81673535  -5.83522296
H   -2.60522516   2.61198328  -6.82812684
C   -2.70954357   2.20992960  -4.72040274
N   -3.24248242   1.79385724  -3.79436195
C   -1.89776819  -5.29085637   2.70746685
H   -2.12170018  -5.06537267   3.72918684
H   -0.86751111  -5.56638457   2.62055506
H   -2.51291767  -6.10205145   2.37814520
C   -2.17291865  -4.05131296   1.83601727
N   -2.37778068  -3.12841656   1.18718344
C    0.93523711   1.86363859   1.98265531
H   -0.11421501   2.00267219   2.13828333
H    1.10017347   1.45523343   1.00751413
H    1.43578541   2.80582816   2.06407592
C    1.48786423   0.89528189   3.04495874
N    1.89932023   0.17429630   3.83589193
C   -1.59217102  -0.66167527   5.09250789
H   -1.76514075  -1.70273950   5.26904941
H   -2.28163510  -0.08252095   5.67053786
H   -0.59114850  -0.41312597   5.37724680
C   -1.79163551  -0.35459491   3.59667515
N   -1.94014590  -0.12595963   2.48295969
Na  -1.87351443  -0.98635714   0.22530806
