73
Energy:   -665.01448390
C    2.97713515  -0.34830251   1.10372719
H    3.35468353   0.63207712   1.30673747
H    3.67197077  -0.87709376   0.48527561
H    2.84479064  -0.87724999   2.02437836
C    1.62417857  -0.23696303   0.37660133
N    0.61684090  -0.15406572  -0.16477692
C    1.07898538  -0.78107039  -3.60890837
H    1.80989956  -0.99358683  -4.36090664
H    0.12838212  -1.16333182  -3.91733784
H    1.36843984  -1.24472034  -2.68904755
C    0.97857519   0.74227717  -3.40659673
N    0.90381525   1.87647868  -3.25596651
C    2.59131046   2.26751629   4.60015332
H    2.03501440   2.96722408   5.18823824
H    3.01302332   2.76856169   3.75397907
H    3.37629573   1.84740133   5.19361827
C    1.65521603   1.14397876   4.11746228
N    0.95825118   0.30745400   3.75807685
C   -5.17238127  -3.20068061   1.89214630
H   -5.71406276  -3.95191097   1.35629716
H   -5.84829546  -2.64378851   2.50689038
H   -4.43132777  -3.66617102   2.50782275
C   -4.48651554  -2.25101891   0.89248093
N   -3.97585733  -1.54395260   0.14818462
C   -1.44598677   2.84553234   3.10884922
H   -0.40307985   3.07491933   3.04082770
H   -1.69120622   2.59660625   4.12018612
H   -2.01889063   3.69546733   2.80178120
C   -1.76950774   1.65038087   2.19312702
N   -2.01038381   0.76053627   1.51133022
C    0.99027149  -3.21465916   3.00045902
H    0.75784217  -4.11605363   3.52806189
H    1.19846552  -2.43421226   3.70221181
H    1.84763115  -3.37510357   2.38070819
C   -0.20880695  -2.80966432   2.12308221
N   -1.10157535  -2.50812726   1.46983529
C    4.27511150  -3.20362401  -2.15015988
H    3.94914623  -2.67518050  -3.02159219
H    4.61089111  -4.18025493  -2.43005841
H    5.07874649  -2.66885671  -1.68853900
C    3.10435048  -3.32823455  -1.15749133
N    2.23266568  -3.42101276  -0.41840448
C   -0.42664572  -5.21337617  -1.68401143
H    0.18342696  -5.37530244  -0.82001410
H    0.13143545  -5.45352698  -2.56479069
H   -1.29409288  -5.83750505  -1.63018162
C   -0.85943931  -3.73640408  -1.73733280
N   -1.18167381  -2.63673123  -1.77703297
C    4.07590987   2.81218269  -1.85756249
H    4.05762595   3.09241470  -0.82507235
H    3.21576975   3.21367178  -2.35138896
H    4.96263860   3.19741867  -2.31604311
C    4.06395727   1.27655933  -1.97296636
N    4.05505803   0.13321794  -2.05888979
C   -2.49657241   2.84443409  -3.53982789
H   -1.54885337   3.04951457  -3.99223347
H   -2.79833912   3.68332498  -2.94813708
H   -3.22493260   2.66581059  -4.30303439
C   -2.37796648   1.59897783  -2.64184607
N   -2.28965897   0.67167904  -1.97325779
C   -5.31086158   1.74419824   0.09094508
H   -5.21585769   1.07709397  -0.74022658
H   -6.27088836   2.21579310   0.06185952
H   -5.21130709   1.19388329   1.00316296
C   -4.20915736   2.81762968   0.01616045
N   -3.38888849   3.61684818  -0.03952011
C   -0.00646148   3.59603572  -0.51874473
H   -0.62862613   4.36087253  -0.10300924
H   -0.59099039   2.71727159  -0.69480908
H    0.41018711   3.93834259  -1.44293576
C    1.13061469   3.26733931   0.46645396
N    1.97721958   3.02260990   1.19997916
Na  -1.68668242  -0.86179918  -0.22843642
