73
Energy:   -663.52935190
C    1.39463440   1.13158447   3.50715910
H    0.97629712   0.27395481   3.99127218
H    0.73155822   1.46491366   2.73636683
H    1.53091250   1.91452800   4.22362738
C    2.75492520   0.75933114   2.88858300
N    3.76772353   0.48217161   2.42802498
C    2.89398748   1.45750537  -4.97856927
H    2.61053682   1.75889189  -5.96534283
H    3.73891846   0.80337750  -5.03431400
H    3.14927320   2.32148087  -4.40126985
C    1.71845287   0.72170903  -4.30900066
N    0.84321392   0.17387521  -3.81047640
C    4.40387382   3.73585122   0.85217501
H    4.53117727   3.86929753  -0.20181080
H    4.80613244   2.78790146   1.14282660
H    4.91636103   4.51620318   1.37496252
C    2.90409918   3.78500394   1.19838310
N    1.78744879   3.82160037   1.45615076
C   -3.53554215  -1.33742532   3.93625801
H   -3.12680159  -1.81861023   4.80014019
H   -4.12520475  -2.03829274   3.38310163
H   -4.15055736  -0.51710240   4.24240454
C   -2.38998548  -0.81680446   3.04842141
N   -1.53706647  -0.42917856   2.38738671
C   -1.76541333   3.19653422   2.29940758
H   -0.83380608   3.70377475   2.15899690
H   -1.62791373   2.37882910   2.97568511
H   -2.48468295   3.87731536   2.70448456
C   -2.26891833   2.66355426   0.94514945
N   -2.64380069   2.26672646  -0.06315728
C    3.73291653  -3.13458974   2.85815329
H    3.68825176  -3.59429527   3.82333517
H    4.41654042  -2.31192930   2.88621155
H    4.06652875  -3.85112064   2.13691446
C    2.33313833  -2.62570372   2.46667403
N    1.29093983  -2.24681494   2.17519993
C    4.00850609  -0.87769126  -0.58322907
H    4.87267162  -0.91377920   0.04670408
H    4.08829808  -1.62836710  -1.34152855
H    3.13164654  -1.05536691   0.00366768
C    3.91193497   0.51038306  -1.24317127
N    3.84003339   1.54386748  -1.73452823
C    0.75193465  -3.19304282  -3.70108476
H    0.51315544  -4.22926605  -3.81993793
H    1.66647761  -2.97680785  -4.21270249
H   -0.03583584  -2.59619662  -4.11107424
C    0.91314088  -2.87188445  -2.20359691
N    1.03316625  -2.63276745  -1.08864914
C    0.52996753   2.73067914  -1.48528673
H   -0.11985167   2.54056456  -2.31383463
H    1.50383767   2.98660268  -1.84719721
H    0.14063123   3.54119739  -0.90530699
C    0.62392983   1.46942082  -0.60665227
N    0.69388903   0.53035666   0.04753103
C   -4.16901746  -4.50683233   0.30252751
H   -4.34577043  -4.35681036  -0.74205469
H   -4.93833918  -4.02325404   0.86750115
H   -4.17342246  -5.55488222   0.51809909
C   -2.80103475  -3.91033359   0.68254408
N   -1.78250945  -3.46621317   0.96548368
C   -5.73130496   1.01029231  -0.47270519
H   -6.67957351   0.77487208  -0.90889811
H   -5.05502092   1.32708672  -1.23898209
H   -5.85316134   1.79647808   0.24281004
C   -5.16446749  -0.23834774   0.22814666
N   -4.74243123  -1.16801702   0.74996271
C   -2.61290813   0.64886089  -3.19326275
H   -3.55468605   0.33798801  -3.59490013
H   -1.88336793   0.67697855  -3.97549008
H   -2.71274591   1.62364208  -2.76345683
C   -2.16375189  -0.34714099  -2.10797987
N   -1.82933465  -1.08870965  -1.29993743
Na  -0.37283453  -1.55760778   0.57695502
