73
Energy:   -664.49202465
C   -7.11036280  -1.37729781  -0.88357240
H   -7.49283270  -1.75304856   0.04240186
H   -7.12831308  -2.15468569  -1.61858598
H   -7.71630237  -0.55974410  -1.21424181
C   -5.66195446  -0.89430553  -0.68249590
N   -4.58354862  -0.53469582  -0.53278531
C   -1.37670419   0.80627072  -5.15839091
H   -0.37403829   1.17324698  -5.22831721
H   -2.03901904   1.48028646  -5.66032808
H   -1.43594213  -0.15904626  -5.61616060
C   -1.78129766   0.69735507  -3.67648622
N   -2.08253589   0.61626242  -2.57314082
C    1.29899774  -1.17287093  -2.46217152
H    0.96328603  -2.18660788  -2.52951565
H    1.62619390  -0.84078319  -3.42527042
H    0.49494443  -0.55252303  -2.12517620
C    2.46849155  -1.08464271  -1.46412342
N    3.33923285  -1.01895280  -0.72103124
C    1.96525590   0.65635072   2.12564643
H    1.64218250   0.10904556   2.98644885
H    2.19994734   1.66105323   2.40918105
H    2.83502798   0.19000048   1.71223007
C    0.84063626   0.66923620   1.07366514
N    0.00330582   0.67883003   0.29041725
C   -3.95601806   3.23309444   2.67817189
H   -3.42250596   2.80538725   3.50117345
H   -4.98759890   2.95551872   2.73893192
H   -3.87084644   4.29912168   2.71325480
C   -3.36175381   2.71389135   1.35572032
N   -2.91929706   2.32732105   0.37109501
C    4.43920317   2.21719857  -1.40341129
H    5.19916877   2.91194658  -1.69440558
H    3.90094343   1.89379738  -2.26977566
H    4.89168094   1.37185841  -0.92847659
C    3.46888099   2.89939589  -0.42122918
N    2.74643202   3.40732280   0.31005004
C    4.63190072  -4.33406485  -2.24574586
H    5.22319576  -5.10732369  -1.80151493
H    5.03967413  -3.37951080  -1.98604121
H    4.63810876  -4.44703756  -3.30974667
C    3.18505151  -4.43239834  -1.72752017
N    2.10780650  -4.50561209  -1.34167759
C   -0.24938024   3.72835271  -1.38274766
H    0.07060531   4.74259703  -1.50029722
H   -0.10858208   3.42547249  -0.36621505
H   -1.28542577   3.64933341  -1.63821721
C    0.57856825   2.81824729  -2.30892767
N    1.19501353   2.14063243  -2.99851080
C   -1.15286997  -0.60506473   4.44657129
H   -0.62545013   0.31054945   4.61503242
H   -0.45632847  -1.41651245   4.41077134
H   -1.84896034  -0.76740206   5.24281490
C   -1.91261091  -0.52134202   3.10964040
N   -2.47827258  -0.45900666   2.11423458
C    0.78309117   4.94534159   2.55547984
H    0.62366175   5.14089880   1.51565302
H    1.82642946   4.78761167   2.73286524
H    0.44580585   5.78161575   3.13148612
C   -0.00363951   3.68728670   2.96773307
N   -0.58939626   2.75060765   3.27467433
C   -1.04094819  -4.69261308   0.04503978
H   -0.47641720  -4.68966908   0.95399317
H   -0.48594271  -5.19739932  -0.71788805
H   -1.97026024  -5.19858950   0.20399283
C   -1.31472965  -3.24210502  -0.39390223
N   -1.51857238  -2.16213584  -0.72071451
C    3.21316096  -3.59468830   1.81618726
H    3.77616723  -2.97832861   1.14684068
H    3.10939210  -4.57385102   1.39741347
H    3.72291192  -3.66033004   2.75466699
C    1.81853956  -2.97804702   2.03155832
N    0.78018054  -2.51892955   2.19191186
Na  -2.27441853   0.06882698  -0.23819018
