73
Energy:   -665.20659621
C    0.74106085  -5.35946121   2.62858722
H    1.03730382  -6.37497949   2.46776774
H    0.61018945  -5.18779952   3.67658724
H    1.49741253  -4.70328748   2.25140389
C   -0.58553394  -5.08933772   1.89457119
N   -1.57324407  -4.88821850   1.34806288
C   -1.96909408  -1.31580925   3.07156700
H   -2.41147410  -2.22917505   3.41062895
H   -2.64813078  -0.81271884   2.41528330
H   -1.75548103  -0.68934386   3.91228674
C   -0.66253311  -1.62696176   2.31811991
N    0.31026093  -1.85862895   1.75714429
C   -5.39650613   2.50345870  -0.38497994
H   -5.99158647   2.78961418   0.45697886
H   -6.03613862   2.19787279  -1.18647019
H   -4.80176207   3.33508421  -0.70053912
C   -4.47542788   1.33450285   0.01094565
N   -3.78964325   0.46416209   0.30573025
C   -1.27284715   2.59559525   1.41333815
H   -2.01833117   2.11548293   2.01220868
H   -1.73900086   3.31364855   0.77146646
H   -0.56840493   3.08985996   2.04923330
C   -0.54286347   1.54176455   0.56001250
N    0.00064256   0.75713968  -0.07532724
C    2.61697430  -0.30386200  -5.06348169
H    3.63890883  -0.62046061  -5.04572448
H    2.57395345   0.76468309  -5.02798967
H    2.15196811  -0.64986129  -5.96289974
C    1.87733036  -0.88812355  -3.84562895
N    1.32663182  -1.32313282  -2.93888224
C   -3.85118755  -2.91833579  -0.34388662
H   -4.20848004  -2.31979414   0.46789546
H   -3.79263867  -3.94089120  -0.03428759
H   -4.52364866  -2.83432748  -1.17191909
C   -2.45337629  -2.42898125  -0.76609014
N   -1.41264227  -2.06463455  -1.08043984
C    2.98354264   0.10206358   3.17515413
H    3.55689426  -0.04856028   4.06592938
H    3.50823407   0.76710518   2.52145873
H    2.83429998  -0.83677963   2.68403383
C    1.61797690   0.71292008   3.54078311
N    0.60125114   1.16773051   3.81301051
C   -1.74396524   0.79834732  -3.20614424
H   -1.96520088   0.89975571  -4.24809976
H   -2.34028524   0.01360310  -2.78963728
H   -0.70757656   0.56254312  -3.08288034
C   -2.05892177   2.12122422  -2.48337244
N   -2.29342122   3.10616621  -1.94523598
C    0.85824441   4.45733646  -1.56338650
H    1.67217418   5.15121028  -1.53244120
H    0.56168013   4.21069678  -0.56532959
H    0.03287480   4.89863598  -2.08196035
C    1.30154086   3.17850990  -2.29802308
N    1.63159521   2.22636541  -2.84499340
C    2.03280517   4.57707297   3.70190692
H    2.97637089   4.70935278   4.18882166
H    1.39360941   3.98063266   4.31882413
H    1.57951709   5.53219185   3.53705261
C    2.24713630   3.87045865   2.35047865
N    2.40671557   3.34435217   1.34427888
C    4.49796658   1.68705984  -1.05536581
H    5.52759943   1.51453461  -0.82086331
H    4.16289078   2.57384730  -0.55914884
H    4.38828850   1.80704904  -2.11294437
C    3.65617658   0.48635927  -0.58493225
N    3.02942567  -0.40761689  -0.23467308
C   -0.07136296  -5.72757555  -1.93918826
H    0.52825369  -6.60705480  -2.04816668
H   -0.38655253  -5.38898030  -2.90402394
H   -0.93023479  -5.95317912  -1.34224496
C    0.75540952  -4.62440446  -1.25284955
N    1.37097921  -3.80304344  -0.74183919
Na   0.88140782  -1.43467301  -0.57526130
