73
Energy:   -663.38619125
C    3.88571461  -1.30659931  -3.50289721
H    3.97628889  -0.40326085  -2.93661452
H    3.40192297  -1.09690183  -4.43395667
H    4.85916395  -1.70963575  -3.68959778
C    3.05061280  -2.32846969  -2.70918070
N    2.42884154  -3.08929863  -2.11822268
C   -0.43930558  -1.57014227  -3.48040710
H    0.02325334  -1.04107537  -4.28726994
H   -1.49756147  -1.60231121  -3.63519312
H   -0.05416781  -2.56763456  -3.44069417
C   -0.13625718  -0.84965936  -2.15350619
N    0.08937613  -0.31322708  -1.16556814
C    3.91211189  -3.28389610   1.11497742
H    3.61638064  -3.71358569   2.04922047
H    4.97222256  -3.13889384   1.10874744
H    3.63739801  -3.94166069   0.31699427
C    3.20735831  -1.92746745   0.92783124
N    2.68263724  -0.91754465   0.78849240
C    1.12644842   3.61528960  -5.24036992
H    2.02623017   4.03104653  -5.64340734
H    0.77457122   4.23364483  -4.44117135
H    0.38185321   3.56546867  -6.00717821
C    1.40953641   2.19864352  -4.70691415
N    1.62030830   1.14388612  -4.30973208
C   -1.12045252   3.92655974   1.51926960
H   -0.97275537   4.47591389   2.42552329
H   -2.15416754   3.66730072   1.42378601
H   -0.82515277   4.52832083   0.68525477
C   -0.27025851   2.64295119   1.55272470
N    0.36274958   1.68724629   1.57763353
C   -4.99789708  -1.27830302   0.12394555
H   -5.91033189  -1.61632251  -0.32114514
H   -4.97369013  -0.20858710   0.11936679
H   -4.94039191  -1.63205001   1.13213963
C   -3.80227528  -1.82226863  -0.67991384
N   -2.91208050  -2.22727576  -1.27842369
C   -3.75781612   1.16964711   3.07880278
H   -4.55819538   0.63756810   3.54910605
H   -4.14584043   1.76073549   2.27571452
H   -3.28446436   1.80808585   3.79520572
C   -2.72867421   0.16584138   2.52667871
N   -1.96243128  -0.58153762   2.11559725
C   -2.09130440   2.11825710  -2.83873684
H   -2.68399933   1.56607861  -3.53781611
H   -1.07008599   1.80769874  -2.91333954
H   -2.16318949   3.16323281  -3.05727148
C   -2.60459797   1.85596888  -1.41068412
N   -2.98676838   1.66068338  -0.34743395
C    2.75125184   1.99380294  -1.03774066
H    3.64606930   2.40997620  -1.45126419
H    2.58118551   1.02468126  -1.45819247
H    2.85485767   1.90885051   0.02383741
C    1.55903493   2.91190491  -1.36531905
N    0.67137525   3.59547356  -1.60921605
C   -0.68835004  -1.99569476   5.54297359
H   -0.09568729  -2.43625363   6.31728550
H   -1.41082330  -2.70602481   5.19893478
H   -1.19128710  -1.13250169   5.92618517
C    0.22233510  -1.58162708   4.37216167
N    0.90038158  -1.27333488   3.50043899
C   -0.51012558  -4.85503867  -1.13369096
H   -1.37743482  -4.54152674  -1.67626367
H   -0.69848509  -5.80460373  -0.67789934
H    0.31904782  -4.93968161  -1.80466498
C   -0.18414104  -3.81777326  -0.04308813
N    0.05856926  -3.04548201   0.76891525
C    1.83894047   2.02301152   4.91007363
H    2.27202332   1.44966669   4.11722110
H    2.24770229   1.70338060   5.84583479
H    2.05736528   3.05981364   4.76097282
C    0.31294231   1.81600869   4.91898577
N   -0.82323269   1.66188567   4.92562126
Na   0.28561769  -0.69137373   1.20753165
