73
Energy:   -664.46800390
C    1.23376071   1.01700092   2.73183164
H    2.29443150   0.90746414   2.82059736
H    0.74989691   0.41733924   3.47424715
H    0.96809341   2.04370809   2.87393146
C    0.78595133   0.56002490   1.33103198
N    0.45253690   0.21978548   0.28807296
C    4.96427286  -0.65711584   0.83114576
H    4.61949341   0.08019834   1.52569246
H    5.91350872  -0.35958524   0.43703166
H    5.06449065  -1.59816817   1.33042122
C    3.95006698  -0.79210707  -0.31983808
N    3.19494461  -0.89261418  -1.17679787
C   -3.55823233   0.41823280   4.19652756
H   -3.98658138   0.99712345   4.98792056
H   -2.96606395  -0.37037172   4.61166444
H   -4.33977262  -0.00013608   3.59731029
C   -2.66917430   1.32220402   3.32244986
N   -2.00723018   1.99525170   2.67165928
C   -4.05465195  -0.03445683  -2.57481801
H   -4.62827386  -0.55972487  -1.84000404
H   -4.42681811  -0.26673713  -3.55074695
H   -4.13480439   1.01875497  -2.40388065
C   -2.57806191  -0.45999194  -2.47381453
N   -1.47867350  -0.77682218  -2.39861285
C   -0.23223900   3.75260548   0.14155202
H   -0.11678791   4.78801121  -0.10238691
H    0.69484723   3.24292564  -0.01856252
H   -0.51869919   3.65782092   1.16812669
C   -1.32042683   3.13237099  -0.75441474
N   -2.13063213   2.67057822  -1.42150272
C    1.75849885  -2.49312484   5.25974265
H    0.70032886  -2.64755957   5.22332326
H    1.97317089  -1.63475715   5.86142355
H    2.23015402  -3.35407368   5.68542749
C    2.29367543  -2.26713896   3.83351811
N    2.69213872  -2.09888221   2.77162912
C    2.25980174  -3.76453697  -5.64886891
H    2.36134234  -3.31967980  -6.61669730
H    1.56008210  -4.57246408  -5.69931999
H    3.20993062  -4.13525966  -5.32526593
C    1.75325616  -2.70842225  -4.64905229
N    1.37610996  -1.92209684  -3.90464337
C    1.01776689  -4.67464338   1.37026881
H    0.47092374  -4.36174978   2.23511582
H    2.06214694  -4.70637780   1.60083842
H    0.68839379  -5.64831845   1.07299905
C    0.77573632  -3.67793639   0.22153195
N    0.59553355  -2.93584274  -0.63375486
C    4.03976101   2.74437726  -2.20413251
H    3.39653997   3.43994309  -2.70148052
H    3.97470021   1.79113976  -2.68580090
H    5.04878176   3.09778173  -2.24750891
C    3.60692104   2.60659336  -0.73264851
N    3.28465200   2.50400698   0.36293821
C   -2.43792291  -1.62850786   0.88976472
H   -2.10182355  -2.30076773   0.12818473
H   -2.32551265  -0.62003528   0.55028561
H   -3.46851267  -1.81967266   1.10479925
C   -1.60016114  -1.83726882   2.16498002
N   -0.97640942  -1.99270084   3.11443578
C   -4.78796811   3.32664748   0.62647403
H   -4.65930562   3.64503941  -0.38692260
H   -3.97034123   3.68162687   1.21839886
H   -5.70480899   3.72222863   1.01094438
C   -4.83035201   1.78815225   0.67972855
N   -4.86190875   0.64267262   0.71937896
C   -0.66795446   2.47767042  -4.63257314
H   -0.74373666   1.87463612  -5.51320182
H   -0.30399620   3.44888331  -4.89559218
H   -1.63265175   2.56912601  -4.17881758
C    0.30573211   1.81613963  -3.63964239
N    1.03068603   1.32359989  -2.90036032
Na   0.86742936  -0.85201635  -1.81568180
