73
Energy:   -663.56285713
C    3.49161832  -0.31244123  -1.34769342
H    4.09091931  -1.17484816  -1.14277198
H    3.92817636   0.24240209  -2.15172393
H    2.50449466  -0.62106459  -1.62198814
C    3.42147569   0.57440896  -0.09064260
N    3.36925131   1.23470923   0.84528887
C   -4.52026476  -1.04058177  -1.73367254
H   -4.95324418  -0.66420373  -0.83047347
H   -5.17235261  -1.77155891  -2.16419891
H   -4.38093915  -0.23571820  -2.42481805
C   -3.15910133  -1.68862715  -1.41923449
N   -2.14565329  -2.17112640  -1.18512106
C    3.18417021  -0.68088000   3.79101005
H    3.81197767   0.03703454   3.30587430
H    3.78688877  -1.46955634   4.19053358
H    2.64643636  -0.20583049   4.58477914
C    2.18706556  -1.26275310   2.77179171
N    1.44467584  -1.69598407   2.01293732
C    0.87228603  -3.58625905  -3.85923126
H    1.79952958  -3.33362917  -4.32965419
H    0.08232889  -3.01236124  -4.29684766
H    0.67461300  -4.62871985  -3.99743381
C    0.95919778  -3.27547623  -2.35342238
N    1.02390753  -3.04408430  -1.23227922
C   -3.58935859   4.57356510  -0.48562432
H   -2.58997025   4.93924260  -0.59699346
H   -4.00108185   4.93506895   0.43345022
H   -4.18779421   4.91627683  -1.30374569
C   -3.57385705   3.03371609  -0.47063309
N   -3.56231545   1.88722851  -0.45947144
C   -0.99971206  -2.79304020   4.73915401
H   -0.18355380  -3.36062340   4.34338239
H   -1.85160083  -2.90042690   4.10067714
H   -1.24075461  -3.15019662   5.71856040
C   -0.60136507  -1.30754720   4.81808581
N   -0.30477763  -0.20153014   4.87685411
C    2.87231605   1.51441032  -5.44727216
H    2.91050160   1.28869290  -6.49249639
H    3.86408728   1.51324466  -5.04566592
H    2.43169173   2.47927501  -5.30661153
C    2.02411637   0.45226656  -4.72338823
N    1.39259316  -0.33854775  -4.18442375
C   -1.03333647  -6.75387020   1.09903981
H   -0.07947539  -7.13018100   0.79336119
H   -1.76403255  -6.98543133   0.35247316
H   -1.31501472  -7.20708125   2.02648587
C   -0.94912096  -5.22670120   1.27865770
N   -0.88641869  -4.08965446   1.41239138
C    2.78635864   4.59662360  -0.33036284
H    1.86160740   5.10133388  -0.14327236
H    3.54688679   5.31600008  -0.55170759
H    3.06782105   4.03508455   0.53586571
C    2.61762136   3.64304846  -1.52778598
N    2.49198879   2.93306843  -2.41932194
C   -3.06709902   1.37648415   2.91039391
H   -2.77962372   2.24732679   2.35913061
H   -2.72856660   1.46650335   3.92142874
H   -4.13287865   1.28233798   2.89817165
C   -2.43415511   0.12905927   2.26625637
N   -1.96289959  -0.79970526   1.78666670
C    0.68213260   2.15003501   2.60215404
H    1.70762463   2.43477484   2.71256012
H    0.62670846   1.12098760   2.31425009
H    0.17149270   2.28818136   3.53224091
C    0.02089854   3.02245562   1.51898656
N   -0.47142028   3.67201242   0.71251913
C   -0.72052335   1.95063531  -2.42059621
H   -0.71385997   2.93837996  -2.00923713
H   -1.71082186   1.70524721  -2.74307509
H   -0.05259901   1.90742808  -3.25540715
C   -0.26613501   0.94438115  -1.34701166
N    0.07217777   0.19517918  -0.54767916
Na  -0.34196010  -1.95786974   0.42757746
