73
Energy:   -664.80212726
C   -2.19867694   0.97458412   3.86442810
H   -2.88459229   1.22300019   3.08167029
H   -2.48948351   1.47358055   4.76516846
H   -2.20755206  -0.08341421   4.02398950
C   -0.78015147   1.42159637   3.46497155
N    0.27600523   1.75441731   3.16755800
C   -0.55811072   3.66191867   0.41366702
H    0.14321256   2.93038377   0.07029763
H   -0.25730423   4.02031947   1.37593694
H   -0.58903849   4.47829682  -0.27732450
C   -1.95591807   3.02397744   0.51742432
N   -2.99664919   2.54900119   0.59467635
C    4.04760346   2.90334243  -2.63972400
H    4.53928729   2.36279600  -1.85808678
H    4.75258057   3.54180085  -3.12990481
H    3.63872667   2.21332559  -3.34795816
C    2.91378116   3.75553233  -2.03987455
N    2.06959892   4.39002645  -1.59325937
C    2.12945723  -1.00594398   3.87367115
H    1.12743850  -1.12646125   4.22910640
H    2.43450743   0.01122887   4.00483081
H    2.78335473  -1.64839974   4.42554772
C    2.19144745  -1.37180236   2.37904582
N    2.23760198  -1.64420055   1.26622933
C   -0.86733139   2.97883790  -3.33872321
H   -1.70769425   3.05890028  -2.68124281
H   -1.20423708   2.70350144  -4.31626271
H   -0.36186989   3.92064432  -3.38779893
C    0.09957025   1.90438750  -2.80744405
N    0.81947247   1.10441033  -2.41188257
C    0.82115043  -4.65764368   0.69321318
H    1.49361300  -4.20344599  -0.00420974
H    0.93181346  -5.72120019   0.65447910
H    1.04417421  -4.31157945   1.68083610
C   -0.62695512  -4.27869562   0.33128958
N   -1.70513552  -3.99655157   0.06182102
C    5.07446248  -2.32931578  -3.53063632
H    4.41672053  -3.11574973  -3.83689983
H    5.90197561  -2.74491611  -2.99454164
H    5.43382849  -1.80856632  -4.39352400
C    4.31289915  -1.34877319  -2.61950652
N    3.74588063  -0.61871466  -1.94112896
C   -1.55235393  -2.51150777  -3.19995623
H   -2.31685925  -2.60870013  -2.45767229
H   -1.52483823  -3.39593927  -3.80155651
H   -1.76253290  -1.66497548  -3.81971988
C   -0.18913677  -2.31707653  -2.51043793
N    0.82584036  -2.17231364  -1.99706021
C    2.98955992   3.69111016   2.04989836
H    4.00119581   3.74769778   2.39383273
H    2.33046009   3.62339762   2.89007782
H    2.75596164   4.56807387   1.48309541
C    2.81837813   2.44494734   1.16143058
N    2.69092551   1.51712247   0.49992592
C   -2.71904902  -4.57122960   3.53741334
H   -3.56728250  -4.31584448   4.13756215
H   -2.20125572  -5.39443139   3.98365095
H   -3.04592953  -4.84519193   2.55609134
C   -1.77299693  -3.35969496   3.44376906
N   -1.06861814  -2.45765236   3.37404663
C   -5.32309387   1.73551980  -1.92221043
H   -5.47232271   2.54456889  -2.60636721
H   -5.27709203   2.11682421  -0.92351635
H   -6.13658602   1.04519104  -2.00330183
C   -4.00370124   1.01585667  -2.25819860
N   -3.02135345   0.48003476  -2.50835707
C   -3.02174306  -0.98317780   0.63542031
H   -3.66327444  -0.13233353   0.73238267
H   -3.08147895  -1.57789302   1.52291370
H   -3.32895043  -1.56737304  -0.20674277
C   -1.57029088  -0.51100687   0.43062484
N   -0.48961876  -0.15945415   0.27814531
Na   1.70857361  -0.32898449  -0.68510874
