73
Energy:   -664.03057090
C    4.82818208   1.12794909   0.11921448
H    5.34140167   0.20296443   0.28017786
H    3.91973410   1.13486249   0.68452286
H    5.44991745   1.94015745   0.43331927
C    4.50218079   1.28031281  -1.37815269
N    4.25945801   1.39375453  -2.49301062
C   -3.39994375   1.13153851  -2.50966303
H   -3.17342731   1.35990788  -3.53017168
H   -4.28868606   1.65047133  -2.21684067
H   -3.55157607   0.07749860  -2.40522836
C   -2.22859429   1.57301230  -1.61264501
N   -1.35647138   1.90170961  -0.94477432
C   -3.63430280   3.50549538   2.63066418
H   -4.09819023   3.64160584   1.67610535
H   -3.55199478   4.45075137   3.12525047
H   -4.22829358   2.84270605   3.22462070
C   -2.23020848   2.90305616   2.43782710
N   -1.18479644   2.45451278   2.29425112
C    3.79692848  -0.53042970   3.87773734
H    3.43259162  -1.19850373   4.62995801
H    4.34702192   0.26203940   4.34065098
H    4.43683033  -1.06404257   3.20640879
C    2.60859546   0.05853908   3.09506219
N    1.72382750   0.49705310   2.51232496
C   -1.10717739  -0.18884672   4.70414208
H   -0.66820354   0.78669524   4.68133822
H   -0.52938362  -0.85423067   4.09725027
H   -1.12409585  -0.54888587   5.71160655
C   -2.54621530  -0.11705506   4.16043641
N   -3.61764443  -0.06360291   3.75562284
C    1.14888615   0.19192810  -3.73835875
H    0.29558075   0.76786663  -4.03001761
H    1.05459632  -0.80342335  -4.11952014
H    2.03532439   0.64262161  -4.13332925
C    1.23690664   0.14690736  -2.20153556
N    1.30244190   0.11338737  -1.05730084
C   -0.57313221  -3.97350594  -3.70584825
H   -1.39537929  -4.56306169  -4.05403489
H    0.03266017  -4.56007856  -3.04717743
H    0.01469525  -3.65306750  -4.54052015
C   -1.10763231  -2.74194992  -2.95140845
N   -1.50559193  -1.82500049  -2.38969373
C    2.37919822   4.48450987  -2.10644714
H    1.50247045   4.88482201  -2.57120385
H    2.88748376   3.84358049  -2.79619667
H    3.02799076   5.28545878  -1.81930924
C    1.97570260   3.67804972  -0.85808288
N    1.67528177   3.07760348   0.07138105
C   -3.37736485  -1.93862659   0.51333301
H   -3.18961954  -2.96681673   0.28425459
H   -3.80994937  -1.45667499  -0.33842540
H   -4.05312397  -1.87514064   1.34050786
C   -2.05238908  -1.24382251   0.87841726
N   -1.06588440  -0.72650929   1.15023908
C    5.04507955  -2.11080476  -2.71877952
H    5.69505403  -2.87121247  -3.09853401
H    5.26249104  -1.93924443  -1.68524268
H    5.19474516  -1.20584447  -3.26972975
C    3.58128297  -2.56577187  -2.86678115
N    2.49141987  -2.90451557  -2.97697510
C   -6.77896963   0.44303596   2.29152855
H   -7.41834083  -0.30539264   1.87205354
H   -7.35730797   1.30887356   2.53800187
H   -6.31477166   0.06043314   3.17642088
C   -5.69447430   0.82471748   1.26693639
N   -4.88701823   1.10889673   0.50408096
C    1.26106230  -3.14091877   0.21133499
H    1.40541864  -4.12352417  -0.18684596
H    0.71658062  -2.54715935  -0.49285856
H    0.70973298  -3.20424432   1.12617101
C    2.63044819  -2.49012864   0.48125068
N    3.65001823  -2.00558581   0.68221518
Na   0.24093271   1.26833698   0.77802439
