73
Energy:   -665.99915355
C    3.75699710  -0.05281400   1.16648075
H    4.75873365   0.09121794   0.81909209
H    3.13292195  -0.34032822   0.34625830
H    3.74462223  -0.82155667   1.91064515
C    3.23125665   1.26011035   1.77592855
N    2.83981899   2.23764221   2.22969014
C    1.02377137   1.61169104  -3.97729780
H    0.47034274   1.24307852  -4.81559473
H    1.31860069   0.79182099  -3.35617956
H    1.89465295   2.12775652  -4.32391109
C    0.14254102   2.57947070  -3.16585735
N   -0.51357502   3.30002665  -2.56170305
C    1.17967442   2.03876926   5.19914822
H    1.56024273   2.88958633   4.67362158
H    1.99563714   1.45346438   5.56863723
H    0.57592478   2.36688831   6.01934536
C    0.32651080   1.18438249   4.24325330
N   -0.30870829   0.54825271   3.53154609
C   -3.32045572  -0.13154188   2.22326915
H   -3.02345367   0.89640879   2.22598799
H   -3.09555201  -0.57029145   3.17290920
H   -4.37246700  -0.19835974   2.03967525
C   -2.55749867  -0.88338457   1.11682028
N   -1.98944246  -1.44316562   0.29301880
C   -0.40707166   2.90037747   1.01168089
H   -0.63523132   3.65725631   0.29058605
H    0.36270400   3.25200308   1.66643578
H   -1.28419904   2.67447896   1.58134440
C    0.07581478   1.63008243   0.28726995
N    0.43534568   0.68429004  -0.25208692
C    0.24158767  -2.78019185   3.72456621
H    0.95153526  -2.40937057   4.43404924
H    0.13636575  -3.83818103   3.84492540
H   -0.70443243  -2.30702589   3.88599438
C    0.73279737  -2.47218847   2.29787530
N    1.09852533  -2.24286595   1.23563907
C    4.60954951  -0.97219862  -3.12642842
H    4.63951616   0.07444825  -3.34672938
H    4.73692552  -1.53069392  -4.03017476
H    5.39604516  -1.21548301  -2.44295465
C    3.25112548  -1.32462493  -2.49233075
N    2.23971705  -1.58702234  -2.02021622
C    0.77527436  -6.21188039  -0.08210008
H    1.83619569  -6.14180187   0.03804614
H    0.54068806  -7.05809793  -0.69347903
H    0.31449432  -6.32597532   0.87683850
C    0.24914749  -4.93060668  -0.75524806
N   -0.14257787  -3.97664016  -1.25643732
C    2.68222528   4.34163945  -0.71064175
H    1.68467234   4.54063980  -1.04258628
H    3.33666136   5.10930714  -1.06743137
H    2.70500470   4.32219673   0.35893862
C    3.14327256   2.97834066  -1.25877659
N    3.48654322   1.96330274  -1.66688790
C   -3.71341935  -4.49366043   0.03192840
H   -3.31956736  -3.95145135  -0.80221194
H   -4.56264240  -3.97517887   0.42549690
H   -4.00849105  -5.47188215  -0.28574134
C   -2.63334085  -4.61235427   1.12323138
N   -1.82917331  -4.70072722   1.93575605
C   -3.64696125   4.53441617  -1.44634781
H   -4.47770638   4.55202487  -2.12047885
H   -2.75259572   4.78889874  -1.97573237
H   -3.81007743   5.24230190  -0.66073340
C   -3.50376146   3.12397935  -0.84488143
N   -3.39714271   2.07384503  -0.39706237
C   -3.39844698   0.50577825  -3.41138626
H   -4.10510989   0.39104720  -2.61617277
H   -3.80514440   0.09528156  -4.31193541
H   -3.18959466   1.54522172  -3.55573681
C   -2.09662930  -0.23430930  -3.05202415
N   -1.12736686  -0.78533812  -2.78446272
Na   0.11785325  -1.61053223  -0.89596942
