73
Energy:   -664.70490051
C    3.59497085  -0.55017146   0.56435552
H    4.21843790  -0.06866601  -0.15975878
H    2.82379081  -1.09733274   0.06356117
H    4.18467250  -1.22202178   1.15237609
C    2.95883643   0.51128797   1.48099987
N    2.48520544   1.30159276   2.16348326
C   -0.20644458   1.44703938  -3.75588851
H   -0.66672701   0.61236157  -3.26972678
H    0.83953237   1.25689620  -3.87703668
H   -0.65595370   1.59300803  -4.71585402
C   -0.40245010   2.71193201  -2.89960090
N   -0.54838512   3.65370206  -2.26205585
C    1.13819193   2.62944258   5.18666907
H    2.00992015   2.59583585   4.56710417
H    1.36345388   2.20480299   6.14261749
H    0.82863587   3.64599446   5.31195442
C    0.00487341   1.82589850   4.52220986
N   -0.83893374   1.22762340   4.02748978
C   -5.07655887  -0.45753101  -2.03602033
H   -5.32037944  -0.05246977  -1.07613643
H   -5.65819140  -1.33873007  -2.20948770
H   -5.29156500   0.26664083  -2.79381094
C   -3.57907271  -0.81451525  -2.07722036
N   -2.46412619  -1.08030624  -2.10789565
C   -0.58755664   3.02964254   1.18372557
H   -0.69269308   3.80437045   0.45321672
H    0.26076530   3.23558461   1.80246367
H   -1.46888753   2.98822671   1.78906818
C   -0.38873019   1.67781627   0.47334976
N   -0.24069486   0.67132017  -0.05555732
C    0.77299516  -1.71964848   4.07772268
H   -0.20114606  -1.49929672   4.46164217
H    1.42519399  -0.89198729   4.26349870
H    1.15801586  -2.59278857   4.56175216
C    0.68220938  -1.97133511   2.56114371
N    0.61461524  -2.15872725   1.43198173
C    3.39443055  -1.46446882  -3.32381537
H    3.33391830  -1.76165440  -4.34993387
H    4.03228281  -2.14051323  -2.79371392
H    3.79472743  -0.47407376  -3.26234085
C    1.98736176  -1.48917375  -2.69839784
N    0.93973509  -1.50756769  -2.23274607
C    1.96223027  -5.37730757   1.20854975
H    2.43952941  -5.13987119   2.13629415
H    2.10165028  -6.41568465   0.99121544
H    0.91593148  -5.16548397   1.28127317
C    2.58050494  -4.52941784   0.08142090
N    3.04083853  -3.89812539  -0.75777776
C    2.61840298   3.98449322  -0.52222592
H    1.71859552   4.49178912  -0.80132730
H    3.46101899   4.60696787  -0.73999337
H    2.59579758   3.76854516   0.52551189
C    2.73325099   2.66926960  -1.31506687
N    2.81876055   1.69002584  -1.90537300
C    0.37856799  -5.34995921  -3.04375876
H    0.15832656  -6.39194893  -2.94055345
H    1.43783553  -5.20378229  -3.00524034
H    0.00374923  -4.99739964  -3.98190146
C   -0.28954478  -4.56807929  -1.89750874
N   -0.78698511  -3.98593415  -1.04407349
C   -3.81293290   0.45828847   2.66546408
H   -3.50240867   1.44654764   2.39747396
H   -3.58886052   0.28134972   3.69666887
H   -4.86667926   0.36040045   2.50755385
C   -3.06574402  -0.56852267   1.79427659
N   -2.50942793  -1.33303025   1.14563790
C   -3.74438596   4.50445594  -1.62794561
H   -4.62708727   5.03378493  -1.33545732
H   -3.76366693   4.33501183  -2.68426755
H   -2.88095429   5.08374658  -1.37534473
C   -3.68890179   3.15274287  -0.89215130
N   -3.64759130   2.14633104  -0.34431899
Na  -0.74809626  -1.62724316  -0.50244218
