73
Energy:   -663.51841780
C    4.32475815   2.11164933   1.14881909
H    3.77576518   2.95291988   0.78034827
H    5.00659238   1.77353554   0.39670192
H    4.87128817   2.39760696   2.02313726
C    3.34696961   0.97591244   1.50326418
N    2.61896160   0.13030471   1.76716466
C   -3.48253558   0.51943722  -3.97362703
H   -2.76566007   0.93864517  -4.64835244
H   -3.71761673   1.23472881  -3.21336793
H   -4.37200677   0.26492310  -4.51117949
C   -2.89578464  -0.74708621  -3.32305670
N   -2.45892189  -1.69007047  -2.83867753
C   -1.76516036  -1.06621213   5.07121326
H   -2.78475013  -1.35622991   4.92551984
H   -1.72794191  -0.05314371   5.41356726
H   -1.31307296  -1.70586806   5.80015520
C   -1.00194658  -1.18623836   3.73903519
N   -0.43369923  -1.27560334   2.74716805
C   -0.45108858   2.07694759   1.88505071
H   -1.18750310   2.74132618   2.28654160
H    0.14531175   1.68254552   2.68107378
H   -0.93728717   1.27370154   1.37191739
C    0.45019129   2.84445847   0.90005241
N    1.12123512   3.41590520   0.16667640
C   -1.77200739   4.36074413  -1.51662058
H   -0.95851955   4.95664574  -1.15879522
H   -2.28743386   3.92528727  -0.68619180
H   -2.44767185   4.97655960  -2.07263131
C   -1.22854026   3.24350773  -2.42658007
N   -0.82390427   2.41167444  -3.10408628
C   -1.46337436  -4.72032009  -1.86256277
H   -2.50595566  -4.49562158  -1.77633629
H   -1.31682048  -5.77582362  -1.76595351
H   -1.10659178  -4.39666683  -2.81799662
C   -0.68726354  -3.99039938  -0.75059706
N   -0.10941375  -3.44694024   0.07731196
C    5.27995371  -1.67127273  -1.80190435
H    5.03570336  -1.16643816  -2.71315844
H    5.81118912  -2.57289343  -2.02499208
H    5.89259612  -1.03696978  -1.19591084
C    3.98516037  -2.01311998  -1.04147642
N    3.02112786  -2.26764080  -0.47530326
C    3.55876943  -5.25630093   3.97120093
H    4.17665547  -4.83823283   4.73823162
H    4.16745251  -5.80171618   3.28060249
H    2.84056253  -5.91587119   4.41170633
C    2.82710654  -4.12372608   3.22719580
N    2.28235027  -3.28047262   2.67325016
C    2.50148907   3.43344793  -3.05831107
H    2.03338617   4.01200688  -2.28951369
H    1.77927794   3.18551480  -3.80787050
H    3.29336770   4.00150774  -3.50005236
C    3.07493921   2.14001011  -2.45022098
N    3.50189890   1.17698686  -1.99747027
C   -3.08428902  -1.09513445   0.45203428
H   -3.77958009  -1.72237288  -0.06569390
H   -3.27902998  -1.13852700   1.50326790
H   -2.08741205  -1.43299962   0.25972584
C   -3.23806612   0.35634870  -0.03903523
N   -3.35256016   1.43704388  -0.40465881
C   -5.24816316   2.92850848   2.32401078
H   -5.13169198   3.00922174   1.26343546
H   -5.08369535   3.88492494   2.77469579
H   -6.23905957   2.59360651   2.54954142
C   -4.22635339   1.91782364   2.87720238
N   -3.46556957   1.16532283   3.28907867
C    0.80517704  -0.64212583  -3.19304724
H    0.48819248   0.22490953  -3.73403769
H    0.27636490  -1.49999525  -3.55265378
H    1.85605818  -0.78599552  -3.33393524
C    0.51000822  -0.44825276  -1.69408473
N    0.29024161  -0.30390544  -0.57803901
Na   1.26784089  -1.75596379   1.11808422
