73
Energy:   -665.98402333
C    2.73052706   1.37327047  -2.17920943
H    1.69701284   1.28253503  -2.44096431
H    3.19607304   0.41098497  -2.22582118
H    3.21495520   2.03740125  -2.86416109
C    2.85076256   1.93298259  -0.74957109
N    2.94028336   2.34971371   0.31485963
C   -3.86703935   4.14339437  -1.74839411
H   -4.33872746   5.07465091  -1.98328084
H   -4.58703806   3.35406562  -1.80722503
H   -3.07679272   3.95801090  -2.44556147
C   -3.28926457   4.20593818  -0.32225787
N   -2.85908497   4.25250488   0.73956538
C   -4.59379967   1.41108415   2.04215836
H   -4.87325334   1.51543231   1.01458000
H   -4.13284822   2.31565705   2.38004994
H   -5.46540993   1.21356668   2.63053026
C   -3.60055181   0.24326746   2.18797629
N   -2.86103364  -0.62622515   2.29654437
C   -4.01820391  -2.61292343  -0.18569168
H   -4.63990974  -3.32808562  -0.68260726
H   -4.43305550  -1.63414575  -0.30731194
H   -3.96397418  -2.85038150   0.85621613
C   -2.60438385  -2.65057065  -0.79503192
N   -1.55173056  -2.67860072  -1.24871343
C    3.14167630   2.57206158   3.82780155
H    2.36456671   3.19960380   4.21145718
H    3.54637504   3.00864240   2.93869232
H    3.91503928   2.47355383   4.56067604
C    2.56460394   1.18229495   3.50048488
N    2.13494734   0.14755053   3.25678275
C   -0.30982554  -2.08159952   3.89824617
H   -0.43746518  -1.02009888   3.85552972
H    0.46070376  -2.32017944   4.60128480
H   -1.22703501  -2.53905043   4.20543430
C    0.08499063  -2.60760377   2.50575210
N    0.37894921  -2.99923785   1.46897698
C    4.88556120  -0.69658743   1.43741770
H    4.68938246  -1.03398565   2.43369905
H    4.84293102   0.37215511   1.40790251
H    5.85869633  -1.02319845   1.13537079
C    3.82867848  -1.27910184   0.48071718
N    3.04178126  -1.71281030  -0.23158984
C    1.39064242  -6.88291426   0.05390777
H    2.37557077  -7.29979555   0.02187146
H    0.69698253  -7.57303984  -0.37906074
H    1.11681373  -6.69254539   1.07060666
C    1.36554215  -5.56363841  -0.74012070
N    1.34685386  -4.58137757  -1.33131099
C    0.55341547   5.16145384  -0.05452389
H    1.45621490   4.84240174   0.42303148
H   -0.21097945   5.29686590   0.68186124
H    0.72670941   6.08680196  -0.56305036
C    0.10480193   4.09394678  -1.06979457
N   -0.22921125   3.29913925  -1.82570973
C   -0.46853353   1.76902263   1.67629814
H   -0.53471464   1.30837729   2.63979496
H   -1.41259133   2.20471746   1.42366407
H    0.28216227   2.53122974   1.69617874
C   -0.09498482   0.70792238   0.62457213
N    0.18313918  -0.08211500  -0.15848569
C    1.86063083  -3.27196675  -5.21086107
H    1.07957248  -3.23429593  -5.94122327
H    1.99278418  -4.28147486  -4.88172894
H    2.77180216  -2.91599268  -5.64439118
C    1.48316269  -2.38558250  -4.00942827
N    1.20212051  -1.72562913  -3.11490694
C   -1.56566763   0.45451769  -3.15151371
H   -1.59561554  -0.56551494  -3.47328497
H   -0.58023176   0.69152823  -2.80852501
H   -1.82197198   1.09435486  -3.96993632
C   -2.57197115   0.66059729  -2.00413216
N   -3.32120986   0.81403292  -1.14985444
Na   0.78069168  -2.29696351  -0.80125758
