73
Energy:   -664.27170800
C   -3.02118864  -3.91053886   2.41981874
H   -2.75115305  -4.21268407   3.41011628
H   -3.37526584  -4.75883966   1.87217453
H   -3.79301935  -3.17120836   2.47048310
C   -1.78937013  -3.31883877   1.70980876
N   -0.87222526  -2.87829117   1.18117406
C    4.70783557   1.92350526  -0.12104362
H    4.35901060   2.93462145  -0.09162668
H    5.02321557   1.68378776  -1.11501046
H    5.53227947   1.81092068   0.55164951
C    3.56938637   0.97530373   0.29901268
N    2.72175920   0.26932459   0.61176369
C   -4.43450862   1.99349369   1.86629097
H   -4.86051448   2.12759048   0.89395500
H   -3.67752038   2.73200661   2.02897643
H   -5.19885067   2.09682821   2.60791236
C   -3.81079353   0.58886104   1.96420221
N   -3.34640930  -0.45695182   2.03710157
C   -1.48264687  -0.06379344   4.85042743
H   -1.83555123   0.93633295   4.70863218
H   -1.09453471  -0.16783136   5.84211496
H   -2.29105336  -0.75055284   4.70992988
C   -0.36981678  -0.36507135   3.82942753
N    0.45873581  -0.58938645   3.06924670
C    1.53410145   3.08478254   2.55184005
H    1.92409102   3.81658954   3.22805513
H    1.74071141   3.38325968   1.54530003
H    1.99533531   2.13885028   2.74516510
C    0.01160940   2.96337866   2.74901783
N   -1.12195513   2.87298796   2.89582565
C    2.98810953  -4.05923256   3.80350772
H    2.54201902  -5.03165593   3.82071878
H    2.60289532  -3.47572668   4.61346451
H    4.04936704  -4.15184341   3.90378146
C    2.65714883  -3.36619048   2.46868276
N    2.41073354  -2.85018915   1.47484490
C    4.52533309  -2.70768601  -1.27767272
H    5.31090547  -3.26803633  -1.74004027
H    3.64106816  -3.30803314  -1.22709665
H    4.82228243  -2.42609372  -0.28902417
C    4.23999103  -1.44242950  -2.10791719
N    4.02754089  -0.50038852  -2.72607193
C   -3.34179052   2.31963397  -4.55236784
H   -4.08727188   2.38273138  -3.78739958
H   -3.74604498   1.81242445  -5.40337661
H   -3.03749553   3.30545388  -4.83602743
C   -2.12498554   1.53997830  -4.02027511
N   -1.21901892   0.95948921  -3.62410789
C    1.97946395   2.07526190  -3.52712509
H    1.41695969   2.59311271  -4.27567013
H    1.62333411   1.06958126  -3.44541168
H    3.01382406   2.06621419  -3.80083367
C    1.81290471   2.79039542  -2.17344784
N    1.68889379   3.32284482  -1.16557360
C    0.89383355  -1.76506394  -4.26757709
H    0.02732163  -1.24860597  -4.62440819
H    0.89522035  -2.76492876  -4.64858563
H    1.77442970  -1.25574783  -4.59930983
C    0.87156681  -1.80235398  -2.72818966
N    0.85498821  -1.83011811  -1.58204575
C   -3.02209604  -1.57639078  -1.43611948
H   -3.36108828  -2.17996283  -2.25201483
H   -3.23692202  -2.07200330  -0.51247609
H   -1.96669209  -1.42207966  -1.52102925
C   -3.74400585  -0.21647688  -1.46898959
N   -4.28150051   0.79604082  -1.49346287
C   -1.66491586   2.99571577  -0.63921871
H   -1.47581549   3.70756958   0.13692908
H   -2.72075636   2.89043098  -0.77711375
H   -1.21823535   3.33459372  -1.55055693
C   -1.06034294   1.63497648  -0.24617907
N   -0.61021091   0.62184423   0.04645680
Na   0.79736030  -1.18549255   0.73658849
