73
Energy:   -664.96487215
C   -0.88396862   5.12773756  -1.76630950
H   -0.00074517   5.00616300  -2.35794802
H   -1.21686115   6.14283429  -1.82680977
H   -1.65117104   4.47831997  -2.13312871
C   -0.57183522   4.77640880  -0.29976906
N   -0.33943771   4.51482858   0.79213695
C   -3.35269587   2.84265879   1.78446032
H   -2.68560268   3.62228025   2.08790262
H   -3.16402733   1.96505485   2.36679579
H   -4.36356899   3.15973066   1.93446051
C   -3.12945104   2.52733328   0.29371166
N   -2.96323511   2.29255910  -0.81621848
C    2.55816138   2.48942927   0.65325182
H    2.36860010   3.35296544   1.25597230
H    3.59390029   2.22899211   0.71895187
H    1.96210551   1.67254133   1.00298113
C    2.19817239   2.79712606  -0.81212548
N    1.93014423   3.02622030  -1.90316548
C   -1.95208462  -4.96732507  -0.19333243
H   -2.89152914  -4.51209871  -0.42809430
H   -2.11254903  -5.80087284   0.45808784
H   -1.48376049  -5.30396597  -1.09457851
C   -1.04307301  -3.93831194   0.50411283
N   -0.36627254  -3.17216490   1.02339252
C    2.22385055  -2.93278479  -1.21208805
H    1.93103469  -2.28772490  -0.41017983
H    3.28497810  -3.06869328  -1.19120043
H    1.74057886  -3.88102532  -1.10169116
C    1.81360530  -2.30082357  -2.55519037
N    1.50815906  -1.83029972  -3.55519110
C   -1.24244569  -3.02173352   6.41399617
H   -2.29834827  -3.05867449   6.58312715
H   -0.77228372  -2.48355840   7.21037193
H   -0.85209327  -4.01730572   6.37711696
C   -0.96123224  -2.31025500   5.07746435
N   -0.75185605  -1.78052690   4.08235566
C    3.98047227   0.79710713  -3.74494049
H    3.60845621   1.80004642  -3.76978036
H    3.33021469   0.16142812  -4.30883441
H    4.96212999   0.77019059  -4.16982013
C    4.03892894   0.30726570  -2.28609225
N    4.08245259  -0.05744351  -1.19991342
C   -1.44054378  -2.56666842  -5.09448671
H   -1.49709244  -1.57406305  -5.49000791
H   -2.16186212  -3.18724001  -5.58386372
H   -0.45979292  -2.96119813  -5.25993502
C   -1.73254542  -2.53429102  -3.58277022
N   -1.94995391  -2.51018458  -2.45722858
C    4.74634228  -1.16110748   1.86053060
H    5.18381930  -1.49055121   2.77975901
H    5.15040050  -0.20652695   1.59517789
H    4.96502277  -1.86824979   1.08785493
C    3.22042147  -1.04308064   2.03151407
N    2.08430407  -0.95520430   2.15881903
C   -4.36982745  -0.92391789  -0.80076907
H   -4.00626689  -0.28417830  -1.57759412
H   -5.33304476  -0.58490998  -0.48110495
H   -4.44866325  -1.92484153  -1.17068240
C   -3.39330365  -0.89200078   0.38960169
N   -2.66623729  -0.86823705   1.27588684
C    0.32594410   3.62608788   4.00824258
H    0.09665879   3.55212148   5.05076712
H   -0.23221993   4.43041094   3.57648290
H    1.37249915   3.81200487   3.88553772
C   -0.04697512   2.30733643   3.30579980
N   -0.32463042   1.32546603   2.78279921
C   -0.60462840   0.89746152  -2.74999221
H   -0.59053352   1.96712007  -2.72692455
H   -1.58709610   0.55913236  -3.00531490
H    0.09428744   0.54722598  -3.48057472
C   -0.21681106   0.34897031  -1.36422343
N    0.07193657  -0.05940633  -0.33245559
Na  -0.31542517  -0.91111341   1.88490609
