73
Energy:   -667.48886722
C    3.67700863   0.47827651   1.85363972
H    4.74253424   0.42159321   1.93327857
H    3.36161363   0.00724641   0.94614000
H    3.22994695  -0.02016762   2.68825844
C    3.24081513   1.95517888   1.84391345
N    2.91604924   3.05479984   1.83667181
C    1.61839990   0.33979194  -4.40277554
H    1.69122874   0.49654526  -5.45872276
H    1.05363685  -0.54882087  -4.21222616
H    2.59964594   0.23427906  -3.98934800
C    0.91415536   1.54498433  -3.75227500
N    0.38981330   2.44230484  -3.26794779
C   -0.17076662   2.98775570   3.72572608
H   -1.09350264   3.17383999   3.21697166
H    0.60806277   3.56673807   3.27505626
H   -0.26934467   3.26249569   4.75514310
C    0.17823068   1.49120872   3.62498862
N    0.43807503   0.37696147   3.54998500
C   -3.04770695  -0.62319803   3.22587941
H   -2.65810521   0.32571690   3.53029874
H   -3.03430874  -1.29739570   4.05664839
H   -4.05337045  -0.50189072   2.88117004
C   -2.18032042  -1.19317838   2.08817866
N   -1.53451172  -1.61755465   1.24110874
C    0.01539377   3.41388155  -0.00816286
H   -0.30020624   3.70379253  -0.98859565
H    0.90011693   3.95452532   0.25616334
H   -0.76020910   3.63314068   0.69558761
C    0.31257072   1.90293165   0.00962074
N    0.53383247   0.77796077   0.02286144
C    1.30843565  -2.86045766   3.94799789
H    0.38564708  -2.42088624   4.26444442
H    2.11586659  -2.43653404   4.50767917
H    1.27557020  -3.91701972   4.11381575
C    1.52176647  -2.58258498   2.44837236
N    1.68060096  -2.37569614   1.33183299
C    4.78420762  -1.86788527  -1.49473623
H    5.18472350  -0.92046897  -1.78950661
H    5.22158077  -2.64114976  -2.09111349
H    5.00705374  -2.04393876  -0.46311427
C    3.25753921  -1.86514824  -1.69691460
N    2.12086519  -1.86311040  -1.84744558
C    0.44177017  -5.98832868  -2.41294178
H    0.81296359  -6.72700760  -1.73362663
H    1.21898197  -5.70538671  -3.09175305
H   -0.38270414  -6.39172040  -2.96286571
C   -0.02444905  -4.75182342  -1.62218620
N   -0.37157045  -3.83118905  -1.03343273
C    3.34901225   4.05901017  -1.65664564
H    2.42525449   4.28439368  -2.14733297
H    4.15698097   4.51296558  -2.19144479
H    3.32417735   4.44007081  -0.65710820
C    3.55140597   2.53282474  -1.61929838
N    3.70209729   1.39651031  -1.59149164
C   -3.85569038  -3.17207701  -1.06852575
H   -3.26419031  -3.62006722  -0.29759604
H   -3.26179069  -3.05420185  -1.95073190
H   -4.69471999  -3.79994154  -1.28466118
C   -4.35420537  -1.79330006  -0.59729656
N   -4.72537243  -0.76673796  -0.24644501
C   -5.54721696   2.32338997   0.89382433
H   -5.99342132   1.37127939   1.09203454
H   -5.73099894   2.59851290  -0.12373680
H   -5.97222792   3.05885409   1.54448347
C   -4.02880679   2.23922743   1.13661482
N   -2.89828140   2.17656459   1.31738338
C   -2.83494146   1.47213151  -2.32527044
H   -3.86687174   1.22533296  -2.18702948
H   -2.69711049   1.89770881  -3.29727130
H   -2.53443187   2.17914755  -1.58047423
C   -1.98061448   0.19724689  -2.19722900
N   -1.34452920  -0.75196266  -2.10189632
Na   0.19886685  -1.56029037  -0.41459667
