73
Energy:   -666.02675088
C    3.94213826  -0.20034508   3.14042021
H    4.25845897   0.68210201   2.62454375
H    4.43179643  -1.05394324   2.72029624
H    4.19561773  -0.11788097   4.17668606
C    2.41730752  -0.36055295   2.99611268
N    1.28200173  -0.47983498   2.88866917
C    3.55119952  -0.08093463  -0.97396430
H    4.44472949   0.35213916  -0.57527714
H    3.77610162  -1.03854611  -1.39503247
H    2.83056658  -0.19575258  -0.19140177
C    2.97866510   0.83926116  -2.06805938
N    2.55238720   1.52438876  -2.88266289
C    0.21778768   2.87135111   2.13036124
H    0.29617206   2.87191232   3.19748623
H   -0.45793039   2.10083625   1.82277218
H   -0.14889727   3.82043087   1.79916817
C    1.60525636   2.61354296   1.51386661
N    2.63828985   2.42159307   1.05485833
C   -3.55097248   1.28941403   3.55664844
H   -2.91674245   2.09714946   3.85700809
H   -3.99873941   0.84681026   4.42181072
H   -4.31740723   1.65981090   2.90835605
C   -2.71624538   0.23080090   2.81222323
N   -2.09475311  -0.55738470   2.25796482
C   -0.79228406   1.84684904  -2.13769882
H    0.07116667   2.37574893  -2.48355707
H   -1.50084478   2.54260146  -1.73924008
H   -1.23505964   1.31463932  -2.95354297
C   -0.37794329   0.85024758  -1.03919654
N   -0.06944775   0.10823249  -0.22131166
C   -0.92481350  -5.21054804   4.97894772
H   -0.18236311  -5.98080716   4.95975160
H   -1.89144879  -5.64300251   4.82565574
H   -0.90156805  -4.71632387   5.92768436
C   -0.63561038  -4.19085108   3.86172810
N   -0.42028552  -3.43164034   3.02990732
C    2.83446552  -4.56922827  -1.12114806
H    3.78611792  -4.92655993  -0.78712413
H    2.94333759  -4.10804169  -2.08049830
H    2.15142640  -5.38951706  -1.19519507
C    2.29116783  -3.53809724  -0.11457148
N    1.88665801  -2.77037331   0.63487054
C   -1.44076487  -4.26974956  -2.63167793
H   -1.95282758  -5.20445923  -2.53675794
H   -0.44956036  -4.44149319  -2.99625555
H   -1.96934237  -3.64157279  -3.31789864
C   -1.36961429  -3.58138767  -1.25592523
N   -1.31663945  -3.06887095  -0.23161481
C    2.82071729   4.74710160  -1.73489199
H    2.83762240   4.38083705  -2.74011071
H    3.42310934   4.11619608  -1.11522987
H    3.20806294   5.74426805  -1.71205562
C    1.37190157   4.74710678  -1.21284505
N    0.29319240   4.74711064  -0.82415738
C   -4.09687051  -0.55060000  -0.65025098
H   -5.14321339  -0.51741532  -0.87153256
H   -3.79505949   0.37836885  -0.21341454
H   -3.90271323  -1.34757072   0.03680048
C   -3.30474114  -0.78834018  -1.94933168
N   -2.71496481  -0.96534855  -2.91655631
C   -2.91390187   5.42215196  -0.11869447
H   -2.67300808   5.49144285  -1.15892000
H   -2.18001213   5.95044927   0.45332553
H   -3.87816197   5.85276618   0.05356386
C   -2.92904775   3.94230644   0.30724900
N   -2.94032456   2.84049419   0.62438328
C    0.31465397  -0.52793759  -4.86081387
H   -0.75366310  -0.47807627  -4.82745704
H    0.62314083  -0.94672971  -5.79587971
H    0.72099932   0.45671615  -4.75962311
C    0.82340882  -1.41411991  -3.70866398
N    1.20219994  -2.07392293  -2.85083601
Na  -0.16403734  -1.69941781   1.37775737
