91
Energy:   -558.77112186
C    2.64471082   3.42075970  -1.23678336
H    2.46871924   4.42044456  -1.57524655
H    1.75992638   2.83567835  -1.37726603
H    3.44904450   2.99108859  -1.79654149
C    3.01379678   3.44244584   0.25817660
N    3.28859805   3.45859215   1.37124224
C    0.85007464   2.22749657   3.40411448
H    0.70703959   2.18814504   2.34444820
H    1.89750252   2.23393431   3.62263790
H    0.39931599   3.11699351   3.79207186
C    0.19717937   0.99465497   4.05636394
N   -0.28893083   0.07674837   4.54199331
C    1.79469408  -0.09490810  -2.71062032
H    1.26960404   0.82069205  -2.53495870
H    1.37689414  -0.86835975  -2.10060813
H    1.70411996  -0.36583212  -3.74178257
C    3.28211245   0.09043270  -2.35729982
N    4.38956303   0.22842736  -2.09423665
C   -3.13634014   1.31353540   2.76724940
H   -4.17335339   1.27029237   2.50718452
H   -2.95284585   0.67845661   3.60861964
H   -2.54645516   0.98513616   1.93713571
C   -2.75690361   2.76246371   3.12534806
N   -2.47439586   3.84125671   3.39196879
C   -3.44833621   3.62627452  -0.57416644
H   -2.71910895   3.82902157   0.18215455
H   -3.66285207   4.52547689  -1.11297729
H   -3.06683511   2.88859938  -1.24884517
C   -4.73821455   3.10199093   0.08381577
N   -5.69858760   2.71163797   0.57371344
C   -4.12232564  -0.35461512  -0.45777976
H   -3.28560547   0.29985748  -0.32946320
H   -4.54989118  -0.57834371   0.49722408
H   -4.85601398   0.12116049  -1.07441424
C   -3.65523888  -1.65932807  -1.12945980
N   -3.30747156  -2.63074617  -1.62955613
C   -0.80708706   3.93543214  -3.17611629
H   -0.66700543   3.64507691  -2.15583635
H   -1.82133266   3.75164149  -3.46321548
H   -0.58924510   4.97750168  -3.28351765
C    0.13752771   3.11804518  -4.07677244
N    0.84083634   2.50946343  -4.74735188
C   -0.79590390  -1.80678172   1.33380174
H   -0.30967685  -0.95678626   1.76506868
H   -0.96854410  -1.62888798   0.29291353
H   -0.17451384  -2.67009491   1.44983546
C   -2.14157409  -2.04364855   2.04420011
N   -3.14348671  -2.22000668   2.57312399
C   -0.09596586   5.05979531   1.30494402
H   -0.45305893   4.07148093   1.10340145
H   -0.82972094   5.59585580   1.86987032
H    0.81390668   5.00295617   1.86512288
C    0.16450418   5.79251000  -0.02429807
N    0.35843597   6.33804939  -1.01397922
C   -0.28498619  -3.38231705   4.72729902
H   -0.20730377  -3.87497685   5.67395204
H   -0.73458858  -4.04398971   4.01670344
H   -0.88933932  -2.50534581   4.83014763
C    1.12011977  -2.98312353   4.23952677
N    2.16628503  -2.68590580   3.87635816
C   -0.22181000  -4.33978831  -1.48693962
H   -1.28547438  -4.41848119  -1.40134936
H    0.16409608  -3.79606644  -0.65007517
H    0.20803723  -5.31949057  -1.50465832
C    0.13499728  -3.59904225  -2.78908548
N    0.40065652  -3.04752313  -3.75859226
C   -1.62497914  -0.18160547  -3.57005778
H   -1.22105345  -0.23229623  -2.58052523
H   -0.85894698   0.12141492  -4.25289926
H   -1.99528648  -1.14452120  -3.85389728
C   -2.77588013   0.84110916  -3.60294704
N   -3.63277824   1.60256668  -3.62743458
C    3.93209587  -3.38622166  -2.97142518
H    3.13276070  -2.88940504  -3.48047990
H    4.75483084  -3.51842014  -3.64264036
H    4.24476471  -2.79530623  -2.13598741
C    3.44840740  -4.76147813  -2.47512377
N    3.08827935  -5.78541909  -2.10560481
C    2.98810032  -5.32119933   1.54883997
H    3.23163331  -5.17262097   0.51757069
H    3.41169402  -6.24413791   1.88596286
H    3.38435158  -4.51400484   2.12877194
C    1.45762823  -5.36845621   1.71322366
N    0.31812220  -5.40364111   1.83561479
C    2.73586486  -0.16977334   1.34163594
H    2.66549051  -0.36404605   2.39149581
H    1.95601688   0.50240365   1.05023534
H    3.68632243   0.27052752   1.12331360
C    2.59160079  -1.49130473   0.56424114
N    2.48418963  -2.47524491  -0.01456463
Cl  -0.54520383   1.45596772  -0.20525706
