91
Energy:   -557.63564928
C    2.32893198   3.08092954  -1.14044337
H    3.08510848   2.71392334  -1.80256400
H    1.98795686   4.03566255  -1.48267128
H    1.50803276   2.39488488  -1.12130475
C    2.91283462   3.22243399   0.27752496
N    3.34757668   3.32779049   1.33326684
C    1.58239221   1.49877001   3.64901814
H    2.29633154   0.70190250   3.63512629
H    2.09035533   2.43038802   3.78671506
H    1.04977380   1.51667310   2.72117322
C    0.59033668   1.27906256   4.80623656
N   -0.14829375   1.11548037   5.66783828
C    1.02444449  -0.39740849  -2.89500098
H    0.50199431   0.31711517  -2.29383384
H    0.37974154  -0.74763167  -3.67384687
H    1.88803254   0.06347008  -3.32709554
C    1.46135205  -1.58505159  -2.01738167
N    1.78664959  -2.46930587  -1.36395421
C   -2.97856514   1.36904805   3.67054784
H   -2.34954846   1.07192758   2.85755483
H   -3.99496884   1.12383460   3.44318695
H   -2.67819404   0.85565955   4.55999067
C   -2.85332704   2.88850183   3.88774734
N   -2.76008158   4.01980423   4.04946225
C   -3.55994049   3.84639702   0.44401105
H   -3.21798722   4.59261341   1.13039960
H   -3.83914260   4.31133874  -0.47836331
H   -2.77594051   3.14064275   0.26469556
C   -4.77863133   3.11899198   1.04173553
N   -5.68600205   2.57740586   1.48676857
C   -4.33006200  -0.35999968   0.26037105
H   -3.57884966   0.40195377   0.25769941
H   -5.29879937   0.09425396   0.27040223
H   -4.22846804  -0.96410033  -0.61692032
C   -4.16320761  -1.24097695   1.51242483
N   -4.03897693  -1.89690458   2.44463578
C   -1.09345722   3.99271245  -2.33992958
H   -0.62879168   4.95625917  -2.31618420
H   -0.93505780   3.49721017  -1.40489686
H   -2.14371252   4.10729782  -2.50943799
C   -0.47862139   3.15415959  -3.47588997
N   -0.02084817   2.52981887  -4.32166411
C   -1.35766361  -2.77884469   0.01318744
H   -1.50665794  -1.75611773   0.29019003
H   -0.33651799  -3.04934857   0.18344718
H   -1.99532103  -3.40442723   0.60220235
C   -1.69516006  -2.96111270  -1.47827980
N   -1.94644151  -3.09681952  -2.58874495
C    0.02000847   4.52677382   2.14164142
H    0.97518082   4.28173828   2.55697688
H   -0.49487354   3.62715916   1.87614364
H   -0.55520621   5.06692977   2.86431612
C    0.21419899   5.39679521   0.88587360
N    0.35878266   6.04456568  -0.04910262
C   -0.72700138  -1.67687051   3.32110692
H   -1.30479967  -2.55108764   3.10478837
H   -0.91659024  -0.93105951   2.57765475
H   -0.99992477  -1.29818361   4.28391954
C    0.77027079  -2.03708833   3.31672884
N    1.88505798  -2.30528688   3.31346916
C    0.88765267  -5.23402983  -3.05083892
H    0.51092735  -5.97388046  -3.72581985
H    0.92448057  -4.28584772  -3.54530176
H    0.24351141  -5.16730953  -2.19905870
C    2.30393527  -5.62989946  -2.59364005
N    3.35842205  -5.92464240  -2.25323471
C   -2.60213388   0.26625097  -2.99343470
H   -3.16322115  -0.62022270  -3.20378133
H   -2.00070632   0.10942195  -2.12246476
H   -1.97069680   0.49476481  -3.82648195
C   -3.56899286   1.43893990  -2.74527269
N   -4.28886331   2.31206012  -2.56050479
C    4.92870980  -2.91810324  -2.93130895
H    5.55765018  -3.77529158  -3.05198338
H    4.43155113  -2.97084456  -1.98529061
H    5.52430001  -2.03012906  -2.97221437
C    3.88183609  -2.88650368  -4.06031600
N    3.10239104  -2.86297638  -4.90091306
C    2.84013978  -4.65352570   1.06622449
H    2.82014414  -3.60466580   0.85552739
H    3.56089916  -5.13037522   0.43533659
H    3.10664522  -4.80640928   2.09116378
C    1.44799277  -5.25675605   0.80233090
N    0.41147603  -5.70588847   0.60585013
C    3.18863151  -0.25368050   0.84357433
H    3.25158609  -1.28527758   1.12060205
H    2.16452769   0.00997020   0.68048301
H    3.59215023   0.35160584   1.62823998
C    3.99120403  -0.01957121  -0.44974319
N    4.58875575   0.15473379  -1.41267687
Cl  -0.67461743   1.07342902   0.36227917
