91
Energy:   -559.33144115
C    1.80843888   2.62196078  -2.22915725
H    2.13879549   2.44028269  -3.23053519
H    1.60511248   3.66502595  -2.10436737
H    0.91788536   2.05984002  -2.03985917
C    2.90734368   2.19124021  -1.23997170
N    3.72552825   1.87054917  -0.50347810
C    2.31873737  -0.01941924   1.90303247
H    3.09734809   0.70869987   1.99527172
H    1.49831373   0.40243097   1.36095633
H    2.69059176  -0.87476338   1.37861870
C    1.84372352  -0.44346002   3.30522763
N    1.49005412  -0.75917766   4.34922566
C   -0.92065165  -0.06331900  -4.05343276
H   -1.03196833   0.27136367  -3.04323659
H   -1.18123688  -1.09916921  -4.11674769
H   -1.56448278   0.50602980  -4.69078863
C    0.54124722   0.12640177  -4.49891868
N    1.62969738   0.26765751  -4.83060321
C   -1.32167529   1.26499871   3.78039714
H   -1.09636807   2.27924529   4.03621097
H   -0.90673067   1.03866613   2.82045255
H   -0.90064531   0.61007496   4.51436425
C   -2.84913049   1.07359184   3.73745502
N   -3.98639032   0.93108073   3.70548265
C   -3.62827389   3.54743606   1.23245469
H   -4.12935745   4.29269243   0.65072590
H   -4.34291315   3.02189215   1.83078020
H   -3.13387004   2.85844566   0.57995477
C   -2.59011194   4.22284668   2.14768158
N   -1.81715317   4.72572058   2.82910960
C   -4.80672915  -0.12385892   0.58510759
H   -3.84236122   0.33919740   0.56334706
H   -5.43797660   0.39894587   1.27293090
H   -5.24028261  -0.09104189  -0.39257004
C   -4.66218048  -1.58999653   1.03360082
N   -4.55455743  -2.68160263   1.36752441
C   -1.47669885   4.45910935  -1.67661603
H   -0.83374247   5.31370067  -1.64225118
H   -1.15627829   3.74224141  -0.94975283
H   -2.48108382   4.75958666  -1.46255223
C   -1.41767783   3.82842677  -3.08030973
N   -1.37373400   3.35885493  -4.12542350
C   -2.06837015  -2.75727081  -1.29569339
H   -1.43036354  -1.92824199  -1.07084022
H   -1.51901740  -3.49045979  -1.84845424
H   -2.42458650  -3.19060355  -0.38452285
C   -3.26459693  -2.27153247  -2.13515737
N   -4.15524213  -1.90987820  -2.76017646
C    1.18659505   3.55153718   1.79106958
H    0.43616379   2.85597018   1.47811645
H    0.91558527   3.96578914   2.73967282
H    2.12642451   3.04739128   1.87742112
C    1.30405491   4.68201579   0.75192508
N    1.39150912   5.52370850  -0.02176524
C   -1.26313612  -2.15820118   2.34737968
H   -1.64069580  -1.32394502   1.79387672
H   -0.96722171  -1.83425106   3.32328443
H   -2.02639051  -2.90296148   2.43498056
C   -0.04711004  -2.75325537   1.61335578
N    0.85827665  -3.19630026   1.06684163
C    2.49911334  -5.63199146  -0.83807630
H    2.69670988  -6.45054659  -0.17790717
H    2.49734838  -5.98174415  -1.84929785
H    1.54436973  -5.20861628  -0.60544526
C    3.59138127  -4.55984340  -0.66763772
N    4.40462439  -3.76158044  -0.54073845
C   -4.05718004   1.44954824  -2.78778242
H   -4.81744879   0.70786459  -2.91738556
H   -3.32181750   1.08990340  -2.09872755
H   -3.59336437   1.65334932  -3.73024687
C   -4.68888270   2.74131908  -2.23652945
N   -5.15921405   3.70310119  -1.82609655
C    5.82485055  -0.75328256  -0.33844446
H    6.42040285  -1.55095943  -0.73078262
H    6.28425799   0.18395191  -0.57389179
H    4.84774581  -0.79066873  -0.77291850
C    5.71279735  -0.90033328   1.19041792
N    5.62936865  -1.00981923   2.32872545
C    3.56175935  -3.63235554   3.06023311
H    3.52373886  -3.08855448   2.13950783
H    4.47472396  -3.40641284   3.57047287
H    2.73133780  -3.35258260   3.67425773
C    3.49768003  -5.14287771   2.76728841
N    3.44997006  -6.26753013   2.54917777
C    1.95796335  -1.31242890  -1.59637921
H    2.57934344  -0.71741926  -2.23257926
H    2.53978391  -1.69053645  -0.78187408
H    1.15880577  -0.71165337  -1.21517716
C    1.37644236  -2.48927553  -2.40165267
N    0.94347355  -3.36549134  -3.00121537
Cl  -1.05051880   0.88552686  -0.12994967
