91
Energy:   -559.59605322
C    2.10524443   1.55817134   0.04985240
H    1.85701058   0.66103505  -0.47780907
H    2.40883469   2.31013249  -0.64820668
H    1.24955343   1.90066350   0.59335136
C    3.25712999   1.27418183   1.03174323
N    4.11476115   1.06273872   1.76280558
C    2.19588090   2.55131648   4.20294722
H    3.21809170   2.72325099   3.93757243
H    1.91084326   3.22782754   4.98139787
H    1.57366009   2.70991854   3.34703498
C    2.03043513   1.10191814   4.69637617
N    1.90725324   0.02277519   5.06375646
C    0.75646311  -0.10051171  -3.94292496
H    0.36517822   0.29183944  -4.85827019
H    0.02590381   0.00531710  -3.16833960
H    0.99300802  -1.13614504  -4.07102333
C    2.03063455   0.67302077  -3.55596936
N    2.97931311   1.24895087  -3.26786333
C   -0.66128028   0.06400393   2.58056311
H   -1.45075088  -0.34622985   1.98613515
H   -0.41934551  -0.61594747   3.37052055
H    0.20191086   0.22073380   1.96799809
C   -1.11558876   1.40748417   3.18078360
N   -1.45384207   2.40776628   3.62767504
C   -3.84312667   3.45911315  -2.56969432
H   -3.62721657   3.17303617  -3.57788228
H   -4.90211974   3.54328091  -2.44183286
H   -3.46065976   2.71827779  -1.89903708
C   -3.18018268   4.81596304  -2.26792676
N   -2.68659074   5.82619945  -2.04324710
C   -3.62015149  -2.19188337  -0.41133013
H   -3.23947516  -3.12761850  -0.76401341
H   -3.01804961  -1.39467059  -0.79450660
H   -4.62930735  -2.06881080  -0.74503162
C   -3.58218731  -2.16964721   1.12804126
N   -3.55392125  -2.15309138   2.27417323
C    0.40963406   3.84966481  -2.66103043
H    0.24683084   3.20556140  -1.82226582
H    0.08891628   4.84089333  -2.41709353
H    1.45147897   3.86168482  -2.90457468
C   -0.39393641   3.33276340  -3.86879176
N   -0.99223116   2.94790681  -4.76802497
C   -3.23689030   0.08960632  -3.70833881
H   -3.90622619   0.32661554  -4.50878636
H   -2.39678645   0.75160496  -3.73804438
H   -3.74545656   0.20046167  -2.77347490
C   -2.75071239  -1.36384436  -3.85904436
N   -2.38873084  -2.44600446  -3.97125149
C   -1.25614573   4.54773780   0.86655235
H   -1.43771434   3.79423149   0.12887948
H   -1.57546073   5.49782282   0.49201866
H   -1.80136607   4.31384163   1.75701653
C    0.24946462   4.60144713   1.18569617
N    1.37045996   4.64143617   1.42331326
C   -0.47388219  -3.61034478   3.27614710
H   -0.10771331  -4.28064376   4.02549335
H   -1.36481840  -3.13386841   3.62842829
H    0.26860292  -2.86867830   3.06747082
C   -0.78723360  -4.39883181   1.99096264
N   -1.02053797  -4.98589624   1.03408439
C    2.58809164  -5.23663827   0.03076081
H    2.19805877  -4.89525186  -0.90531069
H    1.94776067  -4.91135321   0.82389697
H    2.63768031  -6.30548454   0.02798681
C    3.99967723  -4.65780615   0.24047372
N    5.05066686  -4.22683933   0.39661451
C   -4.23216036   1.55882827   1.27565206
H   -4.86147706   1.95228840   2.04639832
H   -3.53305932   2.30843390   0.96865334
H   -3.70166971   0.70755191   1.64822059
C   -5.09610918   1.13886889   0.07197994
N   -5.73935834   0.82619004  -0.82420867
C   -0.11872911  -2.53349799  -1.37014531
H    0.46029977  -2.79002207  -2.23259597
H   -0.73217803  -1.68529162  -1.59178797
H   -0.73961994  -3.36142436  -1.09824167
C    0.82443039  -2.19348249  -0.20119722
N    1.52665550  -1.94032549   0.66913777
C    3.84427159  -2.05785094   3.13930884
H    4.30909314  -1.70958683   4.03794849
H    3.07677706  -1.37242393   2.84598129
H    4.57682201  -2.12682836   2.36244907
C    3.22556835  -3.44631998   3.38620968
N    2.76491566  -4.48009829   3.57003858
C    4.60680062  -1.20225596  -1.11761473
H    5.61410414  -1.56310223  -1.11215750
H    4.19973795  -1.26602986  -0.13012702
H    4.59480107  -0.18306821  -1.44320869
C    3.76017139  -2.05799032  -2.07810296
N    3.12981745  -2.69512346  -2.79323010
Cl  -1.36869994   1.03640560  -0.79694289
