91
Energy:   -557.97365894
C    2.23878157   3.12584926  -0.84472213
H    1.48655208   2.37146007  -0.94446140
H    3.06769638   2.88898771  -1.47851699
H    1.83257799   4.07426478  -1.12828121
C    2.71304236   3.18750008   0.61913438
N    3.06615107   3.23340191   1.70904209
C    1.27881662   1.16089755   3.70827663
H    1.90022072   2.00578050   3.92024343
H    0.83516700   1.27800666   2.74165387
H    1.87102811   0.26985430   3.72332838
C    0.17063923   1.05878414   4.77275571
N   -0.65444921   0.98275606   5.56530877
C    1.19435739  -0.12306426  -3.12256596
H    0.63124957   0.32937427  -2.33319334
H    1.04824004  -1.18285642  -3.10283276
H    0.86465019   0.26497276  -4.06363957
C    2.68964601   0.19258826  -2.93263068
N    3.80295636   0.42760592  -2.79121523
C   -3.25967683   1.48405780   3.42097637
H   -3.17665062   0.79272343   4.23341937
H   -3.03933998   2.47158149   3.76903919
H   -2.56723984   1.21446647   2.65107338
C   -4.69288703   1.44577649   2.85879931
N   -5.75997717   1.41727432   2.44023293
C   -4.02647880   3.53021177   0.00475916
H   -4.11634094   4.17173986  -0.84686675
H   -4.91950536   2.95032701   0.11028795
H   -3.19012481   2.87616956  -0.12805605
C   -3.81557799   4.38282483   1.26973813
N   -3.65855275   5.01763401   2.21157248
C   -4.51455352  -0.30364868  -0.30497850
H   -3.67475055   0.35512416  -0.22981529
H   -5.41423841   0.24169832  -0.10988148
H   -4.55546058  -0.71836834  -1.29049020
C   -4.36949247  -1.43979684   0.72445078
N   -4.26148792  -2.28571079   1.49090767
C   -1.15026161   4.12203836  -2.24995935
H   -0.75598626   5.10872574  -2.12388339
H   -1.00828228   3.56333757  -1.34851918
H   -2.19528536   4.18121886  -2.47204518
C   -0.41801316   3.42088069  -3.40917897
N    0.12717910   2.89883693  -4.27227067
C   -1.17671765  -2.88141155  -0.34078336
H   -0.33036108  -3.44831427  -0.01336613
H   -2.07270468  -3.32716567   0.03791123
H   -1.09627036  -1.87823283   0.02261694
C   -1.22107092  -2.86777011  -1.88008408
N   -1.25409394  -2.85761343  -3.02616343
C   -0.35081348   4.24630434   2.45465516
H   -0.77587568   3.32724366   2.10889546
H   -1.02868780   4.71949555   3.13397509
H    0.57355312   4.04583070   2.95491090
C   -0.09380581   5.17655691   1.25458132
N    0.09754809   5.86917223   0.36107180
C   -1.28709432  -1.76409097   3.08447428
H   -1.91626495  -2.60242097   2.86942241
H   -1.42479909  -1.01318962   2.33475191
H   -1.54305516  -1.36256264   4.04267997
C    0.18502787  -2.21616053   3.09392812
N    1.28108975  -2.55274686   3.10096694
C    1.72235188  -5.01065584  -3.00085212
H    1.95007447  -5.79297057  -3.69441270
H    2.62700062  -4.52183068  -2.70494723
H    1.06912626  -4.30155048  -3.46492644
C    1.03273899  -5.60883298  -1.76060287
N    0.51929086  -6.05420304  -0.83718094
C   -2.38295105   0.36411550  -3.36379280
H   -1.67267349   0.63414703  -4.11711142
H   -2.85467802  -0.55793688  -3.63247878
H   -1.88131705   0.24804721  -2.42582128
C   -3.44826544   1.46959167  -3.24284775
N   -4.24144043   2.29266892  -3.15279867
C    5.52742611  -2.45622081  -2.05093330
H    4.49136799  -2.60178085  -2.27520107
H    6.08700501  -3.30561103  -2.38305797
H    5.88071571  -1.57866830  -2.55092043
C    5.70472737  -2.28725552  -0.53053368
N    5.83673622  -2.16145318   0.60147294
C    3.25212218  -4.82268694   1.35318841
H    2.21365868  -4.67819423   1.13961036
H    3.67285336  -3.90729232   1.71365624
H    3.36059507  -5.58287586   2.09833640
C    3.98507641  -5.25402938   0.06931855
N    4.53079415  -5.57518343  -0.88658091
C    2.73456888  -0.43908928   0.79137032
H    3.03958851  -0.81072945   1.74727136
H    1.87277097   0.18402933   0.90938154
H    3.53054781   0.13105813   0.35980509
C    2.39029814  -1.62161845  -0.13313086
N    2.13397292  -2.50206516  -0.82146401
Cl  -0.87402533   1.05086637   0.23474378
