91
Energy:   -557.63005203
C    2.43519411   3.13441252  -0.55180015
H    3.29440351   2.86481560  -1.12970748
H    2.10342132   4.11004719  -0.83983294
H    1.65228166   2.42590656  -0.72490849
C    2.80288899   3.13796488   0.94365559
N    3.07665454   3.14060977   2.05709036
C    0.99253152   1.12589153   3.83929713
H    0.62389569   1.27747382   2.84630639
H    1.77448201   0.39572105   3.82187327
H    1.37484662   2.04883514   4.22258470
C   -0.15258262   0.63027627   4.74189290
N   -1.00517215   0.26126818   5.41391647
C    1.32840930  -0.18180596  -3.01188519
H    0.69322382   0.13571454  -2.21149758
H    1.25078379  -1.24248274  -3.12952084
H    1.02793115   0.30053567  -3.91850448
C    2.78679077   0.19357284  -2.68968302
N    3.87262206   0.47305942  -2.44978885
C   -3.47988694   1.14480481   3.26480581
H   -4.42704820   0.98937123   2.79191457
H   -3.40369671   0.51479240   4.12630364
H   -2.69488802   0.90626314   2.57794800
C   -3.35615116   2.61858419   3.69406540
N   -3.26402425   3.71587993   4.01366867
C   -3.59385610   4.00373069   0.27372631
H   -3.30579926   4.66041916   1.06788228
H   -3.77336873   4.57427011  -0.61349355
H   -2.80984528   3.29864962   0.09182852
C   -4.87847043   3.25222828   0.66946631
N   -5.83492419   2.69270057   0.96411273
C   -4.29113711  -0.24257784  -0.05534065
H   -3.60321704  -0.76892658   0.57284974
H   -5.20140593  -0.06881487   0.47955766
H   -3.86374291   0.69435194  -0.34585032
C   -4.58624983  -1.08359791  -1.31120439
N   -4.80597465  -1.70977557  -2.24625203
C   -0.74241270   4.25135306  -2.17172568
H   -0.22170723   5.17202335  -2.01007105
H   -0.69482526   3.65424510  -1.28510479
H   -1.76536059   4.45700505  -2.40875726
C   -0.08804822   3.48967870  -3.33931264
N    0.39915588   2.92257751  -4.20863420
C   -1.35200776  -2.45912056  -1.67888272
H   -1.39717074  -1.56808653  -1.08818918
H   -2.12310517  -2.43498955  -2.42031752
H   -0.39763556  -2.52094899  -2.15872647
C   -1.55078589  -3.68728955  -0.77131003
N   -1.69878524  -4.60171720  -0.09558092
C   -0.29353515   4.34192904   2.44467702
H   -0.74694626   3.47034105   2.02082218
H   -0.97898964   4.80698601   3.12200504
H    0.59417054   4.06148296   2.97214995
C    0.06794802   5.33066431   1.32069637
N    0.33708867   6.06682265   0.48384168
C   -1.04154282  -2.09796668   2.38819480
H   -1.61754187  -1.44132857   3.00621718
H   -1.55959932  -3.02736242   2.27532263
H   -0.89941783  -1.64983125   1.42701104
C    0.32852800  -2.35038006   3.04454335
N    1.34860800  -2.53831330   3.53322469
C    1.18316608  -5.72446572  -1.83547553
H    1.95372770  -6.46513959  -1.88584610
H    0.22946033  -6.19279827  -1.96200240
H    1.21798107  -5.23775301  -0.88321624
C    1.39664955  -4.68490087  -2.95141895
N    1.55559769  -3.91089759  -3.78228956
C   -2.36512877   0.71979319  -3.41058032
H   -1.80165573   0.48310152  -2.53230054
H   -1.69605460   0.97596887  -4.20532108
H   -2.95154980  -0.12800929  -3.69735623
C   -3.29506909   1.91195470  -3.11807062
N   -3.98745194   2.79957313  -2.90028385
C    4.75363013  -2.87587462  -2.34621425
H    3.69369102  -2.73346841  -2.38012207
H    4.98283677  -3.89974630  -2.55609563
H    5.22128734  -2.24879736  -3.07626216
C    5.27618803  -2.50974510  -0.94461431
N    5.66525615  -2.23714503   0.09894056
C    3.53678175  -4.58410960   1.84080200
H    2.47717907  -4.43542796   1.83479189
H    4.02980403  -3.63550223   1.88521107
H    3.81011433  -5.16844257   2.69446667
C    3.95884012  -5.32238417   0.55689492
N    4.27308176  -5.87206315  -0.39903226
C    2.69888353  -0.43712977   0.92720535
H    3.53963897  -0.05444690   0.38721989
H    3.00289276  -0.70485937   1.91755798
H    1.93676684   0.31217634   0.97836783
C    2.14815549  -1.68101940   0.20537628
N    1.73811344  -2.60715178  -0.33205827
Cl  -0.84781518   1.07676658   0.22415591
