91
Energy:   -561.74974364
C    2.24167957   3.17569470  -1.39894618
H    3.02613923   2.87009286  -2.05934814
H    1.80966766   4.08715977  -1.75601232
H    1.48995054   2.41514097  -1.36206008
C    2.81634715   3.39833377   0.01236137
N    3.24421328   3.56409868   1.06314400
C    1.41851632   1.93825944   3.44806509
H    1.78354502   2.93208895   3.60284600
H    0.82829531   1.90996932   2.55602366
H    2.24510413   1.26588103   3.35029521
C    0.55295481   1.51632600   4.64988682
N   -0.09149508   1.20217738   5.54469772
C    0.86978674  -0.67301689  -3.08027102
H    0.30119942  -0.26502762  -2.27085555
H    0.87615597  -1.74063152  -3.00915469
H    0.42800173  -0.38010385  -4.00974778
C    2.31480322  -0.14522435  -3.00982671
N    3.39068367   0.24774118  -2.95737772
C   -2.91874604   1.32165755   3.47493507
H   -3.93961760   1.07631326   3.26871283
H   -2.61528188   0.84897210   4.38563648
H   -2.30030376   0.97884658   2.67187288
C   -2.77630998   2.84847787   3.61682118
N   -2.67025987   3.98526501   3.72246184
C   -3.70904774   3.75681802   0.16952231
H   -3.32158584   4.46639975   0.87042690
H   -4.08676267   4.27270359  -0.68843607
H   -2.92852739   3.08930162  -0.13065918
C   -4.84644392   2.95378440   0.82760052
N   -5.69328708   2.35588937   1.31756965
C   -4.25049620  -0.55671831   0.13699509
H   -3.55115949   0.25066722   0.07409081
H   -5.24451116  -0.16427079   0.19008271
H   -4.15782895  -1.17719557  -0.72979199
C   -3.95975084  -1.39055905   1.39865144
N   -3.74327770  -2.01139139   2.33801194
C   -1.17737472   3.90993616  -2.66795647
H   -0.71795755   4.87397835  -2.73473000
H   -0.98736341   3.49041320  -1.70214320
H   -2.23300794   4.00707082  -2.81322325
C   -0.59274248   2.98643256  -3.75282801
N   -0.15745720   2.29884215  -4.56056418
C   -1.04863355  -2.74769303  -0.09110801
H   -1.02824820  -1.70022036   0.12634458
H   -0.04894308  -3.12896840  -0.10323779
H   -1.61549312  -3.25693771   0.66005054
C   -1.70092734  -2.97358787  -1.46772864
N   -2.18658971  -3.14177685  -2.49268526
C   -0.13883510   4.80778123   1.64176374
H   -0.58798328   3.86975353   1.39022824
H   -0.78301252   5.34491467   2.30615986
H    0.80289308   4.63555852   2.11966172
C    0.07935228   5.63264273   0.35973497
N    0.24180270   6.24678960  -0.59479373
C   -0.46019663  -1.61393698   3.21597072
H   -0.84916807  -2.58045010   2.97213927
H   -0.68460917  -0.92921152   2.42496557
H   -0.90741048  -1.26830491   4.12450654
C    1.06627410  -1.70582536   3.39774977
N    2.20280095  -1.77424044   3.53309253
C    1.07901920  -5.35018093  -1.85608023
H    0.78773545  -5.88808622  -2.73398219
H    1.08145594  -4.30080746  -2.06514594
H    0.38679467  -5.55489538  -1.06625982
C    2.49103136  -5.79167777  -1.42840955
N    3.54233859  -6.12039224  -1.10998929
C   -2.75403587   0.19279942  -3.13256744
H   -3.31775618  -0.70926055  -3.24835777
H   -2.12575137   0.11253981  -2.27017770
H   -2.14916594   0.34936947  -4.00119698
C   -3.71752232   1.38126361  -2.95693497
N   -4.43488177   2.26612921  -2.82616862
C    4.89807668  -3.04131748  -2.67637137
H    4.80366302  -3.60530781  -1.77199250
H    4.92768106  -1.99723959  -2.44415591
H    5.80072244  -3.32077607  -3.17839989
C    3.69221633  -3.33007375  -3.58967342
N    2.79439849  -3.54506592  -4.26966830
C    3.26031649  -4.79218242   2.11473877
H    3.68956884  -4.38856898   1.22157653
H    3.69213921  -5.75012407   2.31666952
H    3.45630676  -4.13269876   2.93423142
C    1.73892989  -4.94352795   1.93013824
N    0.60618842  -5.05621157   1.79269476
C    2.95315764  -0.08218422   0.64133791
H    3.44940752  -0.17639277   1.58460934
H    2.02134885   0.42578772   0.77770499
H    3.56914876   0.47709921  -0.03145929
C    2.69346966  -1.48264673   0.05578953
N    2.50012016  -2.52535472  -0.38017786
Cl  -0.73564211   1.17310388   0.14808443
