91
Energy:   -557.55009525
C    2.54601933   3.09130754  -1.28031107
H    3.30771890   2.71327957  -1.92977917
H    2.24316210   4.06213843  -1.61297302
H    1.70448855   2.43062118  -1.29509483
C    3.09680561   3.18900912   0.15450211
N    3.50689104   3.26175238   1.22278575
C    1.44620844   1.36269720   3.48665029
H    2.21834482   0.63150837   3.36803967
H    1.88618998   2.31522763   3.69641473
H    0.87284432   1.42535545   2.58541412
C    0.52687881   0.95394900   4.65256535
N   -0.15760389   0.64961738   5.52064211
C    0.81089808  -0.59652503  -3.24998782
H    0.25950437  -0.25557329  -2.39874340
H    0.72585894  -1.66033390  -3.32730604
H    0.41751842  -0.14200077  -4.13517664
C    2.29306092  -0.21032557  -3.08985256
N    3.39659852   0.07721748  -2.97062457
C   -2.85158756   1.16426805   3.32518689
H   -3.87766291   1.04753835   3.04510878
H   -2.64673207   0.56447803   4.18726882
H   -2.22356493   0.85303037   2.51672059
C   -2.57352750   2.64347307   3.65112418
N   -2.36649914   3.74480844   3.89379931
C   -3.30758654   4.10023176   0.32316444
H   -2.83293018   4.70002589   1.07139470
H   -3.60545459   4.72121032  -0.49571245
H   -2.62239225   3.35564161  -0.02467657
C   -4.54819935   3.41488367   0.92547487
N   -5.47189198   2.90461086   1.37392236
C   -4.40561123  -0.09131873  -0.04567094
H   -3.60698509   0.61934045  -0.09105824
H   -5.29975523   0.39734371   0.28084802
H   -4.56361252  -0.51277096  -1.01639887
C   -4.04073254  -1.21087114   0.94683393
N   -3.76906376  -2.04442880   1.68579892
C   -0.74729715   4.17931084  -2.55486803
H   -0.15201364   5.06783469  -2.52226300
H   -0.67185247   3.66493215  -1.61965588
H   -1.76878814   4.44083560  -2.73669225
C   -0.24246003   3.26441970  -3.68611233
N    0.13341416   2.58324166  -4.52837514
C   -1.43268603  -2.63920836  -1.00558733
H   -0.52658052  -2.85056577  -1.53398211
H   -1.59254073  -3.38784920  -0.25800291
H   -1.35775758  -1.67931401  -0.53880294
C   -2.61457238  -2.63905881  -1.99287888
N   -3.49454050  -2.63894747  -2.72796232
C    0.23679825   4.55874382   1.92047272
H   -0.25938525   3.67035441   1.58961569
H   -0.38458570   5.07373647   2.62301358
H    1.16282701   4.29690804   2.38824602
C    0.51247126   5.47300545   0.71227983
N    0.71772235   6.15371479  -0.18727470
C   -0.44815395  -1.87115407   2.62155705
H    0.36279193  -1.57501396   3.25367095
H   -1.37658930  -1.64834995   3.10453243
H   -0.39118256  -1.33862378   1.69523915
C   -0.36105300  -3.38449404   2.34986687
N   -0.29620239  -4.51124444   2.14758119
C    0.94221267  -5.77164309  -1.05629390
H    0.17367491  -6.51128723  -1.14100778
H    0.67837274  -5.06885604  -0.29381247
H    1.86667201  -6.24559118  -0.80007675
C    1.09753469  -5.03646419  -2.40053609
N    1.21317900  -4.48909008  -3.40138549
C   -2.78416345   0.74671729  -3.28907192
H   -3.46404129  -0.03932416  -3.54364049
H   -2.23079641   0.47079344  -2.41583081
H   -2.10850251   0.91119674  -4.10229262
C   -3.57453057   2.03842831  -3.00906752
N   -4.16299481   3.00016587  -2.80059152
C    4.43189962  -3.18113887  -2.45814300
H    4.98389259  -3.41768923  -3.34372070
H    4.85549483  -2.31477946  -1.99458335
H    3.41188493  -2.98532549  -2.71529324
C    4.49584069  -4.36942013  -1.48064660
N    4.54344773  -5.25414954  -0.75285611
C    3.09567066  -4.72413215   2.32611177
H    4.09955562  -5.07500894   2.20778736
H    2.61765586  -4.68160719   1.36976844
H    2.55707143  -5.39277610   2.96464542
C    3.11399107  -3.31798606   2.95381994
N    3.12763144  -2.27104639   3.42117720
C    2.89818763  -0.22725771   0.53609004
H    3.40595057  -0.35396301   1.46937603
H    2.10637219   0.48263158   0.65434655
H    3.58857232   0.12786518  -0.20022225
C    2.31337196  -1.57772059   0.08239340
N    1.87795012  -2.58320159  -0.25540438
Cl  -0.66643972   1.17802910   0.00504946
