91
Energy:   -559.96351933
C    2.13371448   4.10751087   0.16628742
H    3.12891553   4.06613259  -0.22456151
H    1.65018125   4.99599683  -0.18254981
H    1.58513254   3.25001178  -0.16333700
C    2.18684329   4.12246676   1.70529802
N    2.22640011   4.13360210   2.85116138
C    0.51249390   1.51680508   4.18729184
H    0.64213113   2.48440304   4.62529703
H    0.32490660   1.62199829   3.13912940
H    1.39962263   0.93693154   4.33442572
C   -0.68090569   0.80737088   4.85370054
N   -1.56944592   0.27916487   5.34987211
C    2.83932647   0.96843484  -2.22430621
H    3.58382953   1.71355306  -2.03611955
H    1.95932265   1.19261059  -1.65841082
H    2.59994378   0.95881817  -3.26714011
C    3.37887935  -0.41278552  -1.80871868
N    3.78060100  -1.44116686  -1.49929488
C   -3.58575832   0.12755856   2.53084818
H   -4.35661341  -0.30390846   1.92709424
H   -3.44140337  -0.47067473   3.40616393
H   -2.67450060   0.16683535   1.97141471
C   -3.99559708   1.55303061   2.94516889
N   -4.30074066   2.61435933   3.25364950
C   -3.84221356   2.93429009  -0.44976383
H   -3.86356299   3.62758732   0.36496517
H   -3.94327283   3.46564606  -1.37299021
H   -2.91257124   2.40455520  -0.44304144
C   -5.00402862   1.93412545  -0.30328365
N   -5.86905274   1.18945740  -0.19422250
C   -3.35673080  -1.13266777  -1.14823567
H   -2.82255061  -0.27293288  -0.80123766
H   -4.40697320  -0.92826864  -1.13770110
H   -3.04862443  -1.36522149  -2.14617772
C   -3.05742930  -2.32952391  -0.22652314
N   -2.83458572  -3.22063771   0.45973373
C   -0.83582673   4.20845437  -2.15639305
H   -1.70905497   4.00494657  -2.74030845
H   -0.83293045   5.23831179  -1.86607530
H   -0.83955428   3.59146157  -1.28220480
C    0.42216781   3.90713651  -2.99201096
N    1.35880192   3.68279167  -3.61416648
C    0.54793907  -2.37487330  -0.89036357
H    1.48313403  -2.89467074  -0.90137257
H    0.01506810  -2.61835488   0.00499354
H    0.72562970  -1.32026926  -0.92405986
C   -0.28684988  -2.79416432  -2.11466845
N   -0.90838819  -3.10634554  -3.02621909
C   -1.39341549   4.20577532   2.49631804
H   -1.47966634   3.25866750   2.00596333
H   -2.30046269   4.41897775   3.02234959
H   -0.57814626   4.17602045   3.18866898
C   -1.13718660   5.30487721   1.44850040
N   -0.94641255   6.12320852   0.66835254
C   -0.57724589  -2.12852355   2.80627679
H   -0.71566864  -3.10816284   2.39878912
H   -0.77609281  -1.39682613   2.05130800
H   -1.24853720  -1.98555034   3.62714568
C    0.87433056  -1.97744691   3.29790841
N    1.95509521  -1.86496349   3.66395049
C   -0.96990454  -5.99004989  -0.58921092
H   -1.64480368  -5.48620158  -1.24917169
H   -0.97244616  -5.50298934   0.36350344
H   -1.27986370  -7.00727602  -0.47057109
C    0.45121573  -5.95217263  -1.18131097
N    1.50930438  -5.92397128  -1.62215637
C   -0.61210061   0.45255359  -3.58525075
H   -0.69927915  -0.49439163  -4.07575541
H   -0.27712913   0.30400034  -2.57995222
H    0.09346727   1.06235415  -4.10986139
C   -1.98422998   1.15159677  -3.57112190
N   -3.00584267   1.67206619  -3.56060233
C    2.56051657  -3.73759308  -4.01808288
H    2.94125199  -3.67521194  -3.02006017
H    3.28811338  -4.20405553  -4.64888772
H    1.66140449  -4.31766787  -4.02121367
C    2.25939541  -2.32114144  -4.54209702
N    2.03519702  -1.26652882  -4.93224937
C    3.51772256  -3.85736581   1.03589951
H    4.37763116  -4.23549383   1.54822420
H    3.42439081  -2.80785975   1.22224676
H    3.62665166  -4.02465981  -0.01531229
C    2.25764624  -4.58287129   1.54329429
N    1.31946214  -5.12304310   1.92107276
C    3.18176172   0.54072914   1.72374914
H    2.25710242   1.07906189   1.71359003
H    3.47538879   0.35525385   2.73581690
H    3.05783595  -0.39070772   1.21192214
C    4.26833882   1.37345244   1.01839667
N    5.07734486   1.99345279   0.49322970
Cl  -0.37795435   1.07078454   0.30535394
