91
Energy:   -561.37524536
C    2.01372672   3.31592875  -1.41152516
H    2.78757389   3.06268158  -2.10573449
H    1.53240409   4.21786158  -1.72734915
H    1.29595898   2.52333458  -1.37275611
C    2.62576012   3.52304982  -0.01362817
N    3.08144680   3.67726087   1.02716967
C    1.41948558   1.91382922   3.43963590
H    1.72373024   2.92719094   3.59911440
H    0.79377619   1.86143540   2.57324007
H    2.28405890   1.30076201   3.29280040
C    0.63781382   1.41311140   4.66840395
N    0.05582367   1.04030422   5.58327762
C    0.90834697  -0.39611509  -3.18977759
H    0.31049375   0.09368323  -2.44979833
H    0.88629548  -1.45293500  -3.02381222
H    0.51956025  -0.17970492  -4.16287091
C    2.36011119   0.10850414  -3.09313350
N    3.44101564   0.48421610  -3.02117758
C   -2.84924737   1.07350969   3.60530003
H   -3.86882450   0.78393879   3.45863261
H   -2.46349894   0.59077654   4.47883649
H   -2.27029726   0.78459939   2.75309894
C   -2.77026305   2.60086781   3.78568482
N   -2.71145564   3.73805535   3.91998949
C   -3.90955939   3.48093970   0.39950326
H   -3.50004858   4.19004044   1.08825373
H   -4.34547074   3.99916058  -0.42894559
H   -3.13200852   2.83569219   0.04741039
C   -4.99065626   2.64318660   1.10731630
N   -5.79558203   2.01944134   1.63431527
C   -4.27963716  -0.80251970   0.26451133
H   -3.58877363   0.00435692   0.13583388
H   -5.26892096  -0.41056174   0.37669691
H   -4.24451246  -1.44223979  -0.59247382
C   -3.90068767  -1.60722805   1.52166755
N   -3.61854255  -2.20637000   2.45767750
C   -1.53247987   3.90038901  -2.50122534
H   -1.15692607   4.90082421  -2.55589637
H   -1.26498349   3.47000477  -1.55882723
H   -2.59804134   3.91365192  -2.59767191
C   -0.92437836   3.06085156  -3.64007978
N   -0.47161915   2.43577777  -4.48800868
C   -0.76349506  -2.49611817  -0.27876805
H   -1.32339706  -1.99925992   0.48578529
H   -0.05502336  -1.81492345  -0.70178187
H   -0.24614116  -3.33185626   0.14406276
C   -1.72192895  -2.98879660  -1.37889188
N   -2.43552654  -3.35561808  -2.19798408
C   -0.33228080   4.73729015   1.74132200
H   -0.73097509   3.78141804   1.47252552
H   -0.99158720   5.21662194   2.43447075
H    0.62869616   4.60845262   2.19389605
C   -0.19263889   5.60858327   0.47920139
N   -0.08866914   6.25730060  -0.46050478
C   -0.26554739  -1.74487956   3.20668270
H   -0.59165898  -2.70920554   2.87709686
H   -0.56681332  -1.00422912   2.49564483
H   -0.70439317  -1.52573130   4.15762304
C    1.26901985  -1.73836367   3.33575996
N    2.41157491  -1.73351229   3.43186384
C    1.17654753  -5.24011724  -1.90407282
H    0.56088766  -5.48225914  -1.06310291
H    0.82015123  -5.76026467  -2.76855383
H    1.13911296  -4.18562144  -2.08165763
C    2.62946214  -5.66067685  -1.61464454
N    3.71122312  -5.97380261  -1.39915203
C   -2.81906225   0.04089567  -3.04499521
H   -3.32672675  -0.89014763  -3.18759720
H   -2.16257180  -0.03604165  -2.20356784
H   -2.25053132   0.27492549  -3.92072446
C   -3.85152177   1.15480823  -2.79038545
N   -4.62023482   1.98416677  -2.60081690
C    4.89453360  -2.85515083  -2.96829153
H    4.86509045  -3.43501051  -2.06951679
H    4.96722447  -1.81675833  -2.72058981
H    5.74452983  -3.14319856  -3.55090119
C    3.60892774  -3.10052236  -3.77983968
N    2.65173574  -3.28321261  -4.38407416
C    3.67301925  -4.62808015   1.87164920
H    3.88239623  -3.87242976   2.59969723
H    4.03116564  -4.31038791   0.91472606
H    4.16171431  -5.53795718   2.15129187
C    2.15285157  -4.86334885   1.79858171
N    1.02101763  -5.03851709   1.74417964
C    3.00238504   0.04530223   0.55550084
H    3.51308246  -0.04624772   1.49129298
H    2.04949524   0.50591680   0.71277237
H    3.58400491   0.64749645  -0.11081706
C    2.80171333  -1.35258694  -0.05869517
N    2.65230412  -2.39337896  -0.51599202
Cl  -0.78410958   1.09349059   0.17661342
