91
Energy:   -557.36865410
C    2.04978932   1.96784546  -2.54806678
H    2.34670564   1.24642055  -3.28038295
H    2.05600692   2.94405461  -2.98610346
H    1.06384000   1.73887190  -2.20111701
C    3.03253482   1.93069733  -1.36297973
N    3.76423352   1.90303885  -0.48062856
C    3.45484745   1.47170584   2.81205612
H    3.83342681   2.31992629   2.28092532
H    3.14599190   1.77278602   3.79126910
H    2.61830422   1.06432412   2.28372417
C    4.55849616   0.40389531   2.92755599
N    5.38021279  -0.39113816   3.01355090
C   -0.05730292  -0.80608206  -3.95768322
H    0.51513599  -0.18892093  -4.61823300
H    0.33220063  -1.80254545  -3.97339339
H    0.00230989  -0.41546986  -2.96331532
C   -1.52758146  -0.82235998  -4.41552167
N   -2.62227066  -0.83447962  -4.75640320
C   -0.85945946   1.27206790   3.45449517
H   -0.71485544   0.34204340   3.96345911
H   -0.68643169   1.13625928   2.40734833
H   -1.86244261   1.61115279   3.60923799
C    0.12693591   2.31804391   4.00636321
N    0.86135210   3.09682060   4.41725406
C   -3.09185289   4.11651030  -0.19383277
H   -2.36894089   4.73973838  -0.67744955
H   -4.07344717   4.50155821  -0.37579395
H   -3.02144379   3.12168524  -0.58147273
C   -2.82087976   4.09715101   1.32201642
N   -2.61912795   4.08273713   2.45063505
C   -4.30347157   0.80742689   1.77636890
H   -4.93443093   1.62007028   1.48242812
H   -3.29889404   1.00541082   1.46568345
H   -4.33303582   0.69976809   2.84052802
C   -4.79865289  -0.49217509   1.11498388
N   -5.16733790  -1.45978784   0.62255267
C   -1.76245200   2.90620531  -3.52059505
H   -2.31046376   2.00022563  -3.36637411
H   -2.43464841   3.68314147  -3.81962898
H   -1.27464131   3.18726680  -2.61068063
C   -0.70834526   2.68741270  -4.62177113
N    0.07648513   2.52451166  -5.44164678
C   -2.81495822  -2.61943998  -1.49804442
H   -3.35095549  -2.43703251  -2.40597318
H   -2.62560573  -1.69005625  -1.00277621
H   -3.39771126  -3.25104815  -0.86057356
C   -1.47731775  -3.31054582  -1.82160381
N   -0.48138361  -3.82510553  -2.06250848
C    0.85242563   3.71474680   0.88321697
H    0.24208715   4.12533147   1.66026738
H    1.88394823   3.81506633   1.14929254
H    0.61650564   2.67910995   0.75399940
C    0.58578330   4.46997087  -0.43213031
N    0.38725596   5.03226953  -1.41146615
C   -1.51893670  -2.29645067   1.97808627
H   -1.51722137  -1.48158115   1.28462761
H   -1.93158740  -3.16433719   1.50756368
H   -0.51603145  -2.50220161   2.28912758
C   -2.37093235  -1.92401764   3.20568435
N   -3.00528183  -1.64672432   4.11968693
C    2.26084759  -5.22396753  -0.86329579
H    3.26526107  -5.52446175  -0.64938701
H    2.27373304  -4.34086797  -1.46733903
H    1.75817907  -6.00855308  -1.38927010
C    1.52016317  -4.93326650   0.45521833
N    0.96868995  -4.71682637   1.43691203
C   -4.72267930   0.40848575  -2.38067414
H   -5.21794486  -0.49302388  -2.08589862
H   -3.69866543   0.36992751  -2.07276514
H   -4.77158608   0.51078332  -3.44464896
C   -5.41329366   1.61425085  -1.71675975
N   -5.92748743   2.51199778  -1.22244530
C    5.71597574  -1.20463544  -0.24421984
H    5.06513227  -0.41317464   0.06382684
H    5.75954035  -1.23505670  -1.31289929
H    6.69660999  -1.03306691   0.14797884
C    5.17862212  -2.54689628   0.28605077
N    4.77853792  -3.54627048   0.68086135
C    3.30922500  -3.30350953   3.73865288
H    3.09145504  -4.01151996   2.96651451
H    3.23218558  -3.78144314   4.69287690
H    4.30212231  -2.92686950   3.60751817
C    2.30449843  -2.13871469   3.66532148
N    1.55643383  -1.27147198   3.61072291
C    1.52996339  -1.36568487   0.02580019
H    2.00574488  -1.96649599   0.77249835
H    0.53204916  -1.71773596  -0.13271264
H    1.50118519  -0.34719944   0.35253913
C    2.32286472  -1.46013342  -1.29100920
N    2.91321581  -1.53045465  -2.27143364
Cl  -1.21706020   0.83008619  -0.58437280
