91
Energy:   -559.66327226
C    2.34669774   3.26059213  -0.88878264
H    3.16612989   3.02053455  -1.53361090
H    1.93836649   4.20910084  -1.16895387
H    1.59168022   2.50744031  -0.97601778
C    2.84168145   3.32492785   0.56808113
N    3.21021931   3.37282871   1.65278243
C    1.31056088   1.49173326   3.72748942
H    2.05136977   0.71993265   3.74813368
H    1.77191394   2.43458506   3.93505370
H    0.85489195   1.52295211   2.75986847
C    0.23616705   1.20061509   4.79169246
N   -0.56376800   0.98386438   5.58403999
C    1.21346712  -0.33991723  -2.96776876
H    0.58785229   0.07448172  -2.20502386
H    1.16658752  -1.40808197  -2.92622979
H    0.87635994  -0.00512652  -3.92650387
C    2.66654133   0.11916925  -2.74547402
N    3.74842113   0.46098001  -2.57996549
C   -3.10610029   1.39662763   3.29398814
H   -3.09832139   0.97537327   4.27754517
H   -2.71096387   2.39039663   3.32847689
H   -2.50469908   0.79603455   2.64398534
C   -4.55156789   1.43703965   2.76428041
N   -5.62778423   1.46712823   2.36988893
C   -3.97951945   3.51838665  -0.09045372
H   -4.06995950   4.13475031  -0.96040580
H   -4.88027270   2.95670471   0.04391916
H   -3.15546874   2.84697814  -0.21313273
C   -3.73895863   4.40601378   1.14479871
N   -3.55985016   5.06689252   2.06450029
C   -4.29012796  -0.40863509  -0.32435333
H   -3.49997792   0.31277003  -0.33609038
H   -5.22585165   0.08960369  -0.17916936
H   -4.30684480  -0.93449894  -1.25606512
C   -4.05655057  -1.40716149   0.82455337
N   -3.88264159  -2.15060979   1.67996664
C   -1.04207702   4.16890689  -2.29288876
H   -0.63711554   5.15700951  -2.22536409
H   -0.95431230   3.68187757  -1.34420605
H   -2.07375717   4.22451622  -2.57117417
C   -0.26638486   3.36769863  -3.35494666
N    0.31115321   2.77116266  -4.14569704
C   -0.98064587  -2.70739890  -0.34486275
H   -0.97211943  -1.67671895  -0.05758881
H    0.02133917  -3.08260559  -0.35690524
H   -1.56309623  -3.26819178   0.35596676
C   -1.59673496  -2.84366814  -1.74966342
N   -2.05544130  -2.94512678  -2.79560138
C   -0.23078627   4.52719826   2.27134559
H   -0.66038412   3.60975186   1.92690697
H   -0.91530060   5.01516889   2.93333039
H    0.68179414   4.32093517   2.79052920
C    0.05926937   5.44218863   1.06707803
N    0.27522897   6.12344055   0.17044609
C   -0.82145845  -1.81732872   3.09197673
H   -1.25927147  -2.74608921   2.79093869
H   -0.96428294  -1.08921170   2.32103843
H   -1.28806729  -1.47862204   3.99333851
C    0.68579614  -2.01603690   3.33753459
N    1.80801570  -2.16398418   3.52036358
C    1.18066001  -5.19029681  -2.22333631
H    0.93023892  -5.62831605  -3.16690857
H    1.21766319  -4.12558729  -2.32295295
H    0.43893658  -5.45519251  -1.49906031
C    2.55535196  -5.71101150  -1.76433930
N    3.57887261  -6.09870725  -1.42259517
C   -2.33917414   0.44172614  -3.38150798
H   -2.82190493  -0.47817664  -3.63773059
H   -1.87028792   0.34403099  -2.42469010
H   -1.59960185   0.67392761  -4.11908130
C   -3.38368139   1.57211198  -3.32828716
N   -4.16136452   2.41373562  -3.28866183
C    5.10027843  -2.92103042  -2.60788210
H    4.95019862  -3.58359297  -1.78120980
H    5.15460998  -1.91338937  -2.25206377
H    6.01315838  -3.17314330  -3.10586642
C    3.92421752  -3.05483166  -3.59306126
N    3.04858672  -3.15445277  -4.32657192
C    3.08549156  -5.03404573   1.93002137
H    3.60462687  -4.69407390   1.05834605
H    3.46579446  -5.99087019   2.22114977
H    3.23071008  -4.33498862   2.72697170
C    1.58196409  -5.15235896   1.61856168
N    0.46251955  -5.24044853   1.38666579
C    2.90256688  -0.22603158   0.88225317
H    3.25973832  -0.40132518   1.87553102
H    1.95845562   0.27560011   0.92605588
H    3.60552771   0.38245953   0.35264600
C    2.73558306  -1.57148917   0.15186952
N    2.61125602  -2.57324350  -0.39193431
Cl  -0.75203285   1.18373332   0.25073109
