91
Energy:   -557.80527091
C    2.30628262   3.72187571  -0.70227358
H    1.71242506   2.83935898  -0.81802165
H    3.08561387   3.72605048  -1.43543417
H    1.68947154   4.58645137  -0.83247385
C    2.92708710   3.74168892   0.70691386
N    3.38930425   3.75644076   1.75611796
C    1.81295161   1.54598821   3.81255181
H    2.32617726   2.47031378   3.97723899
H    1.33638707   1.56836143   2.85480196
H    2.51411526   0.73832152   3.84326256
C    0.75103364   1.34588559   4.90977063
N   -0.03961256   1.19690008   5.72669992
C    1.90838420   0.13373360  -2.84738265
H    1.55484365   0.35152456  -3.83352481
H    1.19167168   0.47234019  -2.12865612
H    2.04655976  -0.92217176  -2.74312098
C    3.24988144   0.85265269  -2.61256249
N    4.24868711   1.38792063  -2.43772821
C   -2.90345767   1.64598233   3.90707456
H   -3.78413218   1.09338309   3.65419774
H   -2.56933731   1.35800826   4.88192512
H   -2.13523152   1.43979025   3.19138433
C   -3.22250021   3.15254466   3.89803097
N   -3.46004189   4.27424880   3.89129761
C   -3.54988078   2.97893781   0.41072712
H   -2.66453822   3.57646344   0.34723025
H   -3.34317159   2.09399329   0.97556656
H   -4.32359547   3.53801691   0.89414747
C   -4.00804898   2.58794950  -1.00659783
N   -4.34917603   2.29684092  -2.06186069
C   -3.64230200  -1.04860888  -0.05661420
H   -4.33289074  -0.48110141  -0.64476609
H   -3.56882027  -2.04051204  -0.45111089
H   -2.68036876  -0.58093078  -0.08595239
C   -4.13859489  -1.11090329   1.39989285
N   -4.50810751  -1.15728431   2.48432855
C   -1.00737343   3.97468983  -2.39639569
H   -0.77678572   5.00524183  -2.22408183
H   -0.89736194   3.42714850  -1.48371006
H   -2.01530471   3.88817589  -2.74494834
C   -0.04691236   3.40402993  -3.45633050
N    0.66819457   2.97914769  -4.24550015
C    0.23213177  -2.18311193  -0.56804923
H   -0.29208637  -1.51069867  -1.21454435
H    0.96769545  -2.71861528  -1.13114898
H    0.71311878  -1.62776601   0.20985917
C   -0.76431135  -3.17944463   0.05325767
N   -1.50620855  -3.92125961   0.51584890
C   -0.16933463   4.44360874   2.58865022
H    0.86783685   4.45101632   2.85155824
H   -0.48495703   3.43684924   2.41055779
H   -0.74327041   4.86094630   3.38947865
C   -0.38178782   5.28127581   1.31398261
N   -0.53996888   5.90495702   0.36493463
C   -0.98337516  -1.49757795   3.20828137
H   -1.25906273  -0.79780383   2.44722111
H   -1.24027137  -1.10035211   4.16802876
H   -1.50534266  -2.41847304   3.05207236
C    0.53439307  -1.75103779   3.14714451
N    1.66444051  -1.93975017   3.10162534
C   -1.70761248  -4.47300911  -3.30076550
H   -1.25134336  -5.41620857  -3.08375523
H   -2.41370533  -4.59286644  -4.09572852
H   -2.21062433  -4.11103221  -2.42849783
C   -0.62409006  -3.46397636  -3.72435975
N    0.18264162  -2.71270561  -4.03974493
C   -1.81837459   0.36974389  -3.31702825
H   -1.53612429   0.53134036  -2.29765514
H   -2.27906211   1.25452230  -3.70411126
H   -0.94854335   0.13821815  -3.89555098
C   -2.81346688  -0.80303183  -3.39441319
N   -3.55435833  -1.67621666  -3.45202979
C    3.42789178  -4.33198325  -2.96674851
H    3.17239757  -3.31695649  -3.18888263
H    3.74527634  -4.82406654  -3.86230429
H    4.22114452  -4.35120258  -2.24891859
C    2.19712278  -5.05697073  -2.39124802
N    1.28075932  -5.59675687  -1.96276174
C    2.29206770  -4.84199815   1.34194125
H    2.29398006  -3.79355352   1.12825835
H    2.29190197  -4.99001888   2.40165297
H    1.41754567  -5.29059974   0.91901461
C    3.54821405  -5.49228567   0.73298931
N    4.48347211  -5.97645430   0.27959691
C    3.48834158   0.11502292   0.93922568
H    2.48089673   0.47442653   0.91122366
H    4.14411577   0.86025569   0.53986693
H    3.76345718  -0.09679900   1.95132349
C    3.59852382  -1.16996476   0.09763996
N    3.68055951  -2.12669650  -0.52895886
Cl  -0.41416942   1.22017258   0.45785750
