91
Energy:   -559.26653301
C    2.33744493   3.22909593  -1.10213547
H    3.13623333   2.95258062  -1.75816637
H    1.94324835   4.17807570  -1.40037287
H    1.56452116   2.49074139  -1.15030707
C    2.86756853   3.32392859   0.34063123
N    3.26226965   3.39453581   1.41483661
C    1.42000986   1.59872129   3.61889630
H    1.86968879   2.55632125   3.77918157
H    0.94000234   1.58564707   2.66269499
H    2.17458335   0.84071319   3.64958279
C    0.37763676   1.33027486   4.72025674
N   -0.39845739   1.13040429   5.54026966
C    1.27932274  -0.28350256  -3.05485403
H    0.67499769   0.24539145  -2.34777374
H    1.14041186  -1.33654830  -2.92563514
H    0.99298050  -0.00513304  -4.04753606
C    2.76114831   0.07024072  -2.82977920
N    3.86443480   0.33361868  -2.66220077
C   -3.00631277   1.48835314   3.36130468
H   -2.77775473   0.47025376   3.59823306
H   -2.86257796   2.09744453   4.22920276
H   -2.36049506   1.82584548   2.57777580
C   -4.47163350   1.59128240   2.89887553
N   -5.56263139   1.66791792   2.55457601
C   -3.98240922   3.46822415  -0.09433913
H   -4.10177143   4.01715452  -1.00501376
H   -4.88086814   2.92652048   0.11596494
H   -3.16765859   2.78206480  -0.19565962
C   -3.69013900   4.44538137   1.05949876
N   -3.47253053   5.17291934   1.91858352
C   -4.33602595  -0.40540741  -0.13069379
H   -3.50945271   0.25718421  -0.28119032
H   -5.22523011   0.16583024   0.03634695
H   -4.46387239  -1.01888420  -0.99798879
C   -4.06188046  -1.29825283   1.09375355
N   -3.85776667  -1.96301683   2.00541026
C   -1.15362978   4.08124438  -2.40206437
H   -0.77707760   5.08228655  -2.37007681
H   -1.01680159   3.61802890  -1.44728243
H   -2.19588934   4.09977629  -2.64341612
C   -0.39243774   3.28050247  -3.47491061
N    0.17430433   2.68431371  -4.27369341
C   -0.88866322  -2.41513105  -0.39252571
H   -0.11234950  -1.81775671  -0.82308475
H   -0.46006123  -3.28496844   0.05978208
H   -1.40668967  -1.84534382   0.35036743
C   -1.87727204  -2.84305635  -1.49304037
N   -2.61333625  -3.16166618  -2.31242357
C   -0.15240109   4.57619424   2.08559738
H   -0.58005657   3.64476107   1.77828121
H   -0.82977491   5.08001385   2.74303908
H    0.77042621   4.39395608   2.59557593
C    0.10983405   5.45392639   0.84768825
N    0.30508004   6.10743787  -0.07399136
C   -0.66400942  -1.77058702   3.16496959
H   -1.05833135  -2.68110098   2.76450146
H   -0.83916696  -0.97199231   2.47470484
H   -1.14679961  -1.55110082   4.09429113
C    0.85047500  -1.92540326   3.39728166
N    1.97807748  -2.04067100   3.57024856
C    0.92333512  -5.25769094  -1.95689225
H    0.58271615  -5.72686232  -2.85620149
H    0.98421245  -4.20007277  -2.10734773
H    0.23626174  -5.46612521  -1.16355473
C    2.31482851  -5.80462587  -1.58782809
N    3.35085858  -6.21184378  -1.31304304
C   -2.34964748   0.22940103  -3.32872788
H   -2.81874956  -0.70255032  -3.56602541
H   -1.85853613   0.15047842  -2.38137370
H   -1.63091184   0.46947445  -4.08416347
C   -3.41576833   1.33877955  -3.26341603
N   -4.20954375   2.16476229  -3.21478839
C    4.91240094  -3.17247819  -2.66939155
H    5.76129434  -3.54363360  -3.20467078
H    4.75874114  -3.76316507  -1.79054187
H    5.08469935  -2.15429787  -2.38917521
C    3.66380115  -3.25356297  -3.56717984
N    2.73416185  -3.31393428  -4.23562404
C    3.17902956  -4.95846809   2.00384639
H    3.63233451  -4.67695073   1.07639678
H    3.57069812  -5.90262266   2.32018005
H    3.39319343  -4.21708343   2.74504928
C    1.65466079  -5.07180575   1.81661813
N    0.51969895  -5.15619079   1.67721818
C    2.96687442  -0.21310673   0.80399387
H    3.34164192  -0.36826291   1.79413328
H    2.04846617   0.33382306   0.85188103
H    3.68301180   0.34153299   0.23441410
C    2.71860776  -1.57523690   0.12977945
N    2.53376195  -2.58940472  -0.37220383
Cl  -0.70661782   1.15213824   0.18659013
