91
Energy:   -560.13766711
C    1.02406385   1.24676083  -3.34856044
H    1.17283048   0.39367929  -3.97706704
H    0.70027512   2.07552063  -3.94288118
H    0.27963673   1.02265229  -2.61337154
C    2.34738576   1.60431536  -2.64672436
N    3.33265907   1.87053096  -2.12417549
C    2.73413842   1.90382671   1.37915389
H    3.54741914   1.77163371   0.69651222
H    2.80195629   2.87103758   1.83170551
H    1.80761513   1.82167652   0.85028241
C    2.79951612   0.82025815   2.47149308
N    2.84819280   0.01349209   3.28478926
C   -1.48064498  -1.65046607  -3.25201953
H   -1.41498368  -0.96224079  -2.43535881
H   -0.66711599  -2.34359492  -3.20061840
H   -2.40701705  -2.18300913  -3.19605718
C   -1.41273839  -0.87694332  -4.58192601
N   -1.36217884  -0.30102048  -5.57210184
C   -0.39904062   2.33982317   3.64908442
H    0.25663251   2.01920667   4.43151524
H   -0.41899497   1.60104481   2.87532254
H   -1.38553979   2.47153720   4.04198375
C    0.10582183   3.67499249   3.07112525
N    0.48171487   4.66908674   2.64080838
C   -2.59285906   4.33881798   0.53964031
H   -1.74628450   4.93285981   0.81409611
H   -3.26127303   4.92433454  -0.05642362
H   -2.26528855   3.48909854  -0.02211901
C   -3.32073509   3.86409560   1.81103134
N   -3.86267188   3.51064321   2.75763975
C   -3.38390696   0.22613393   3.31324951
H   -2.70365838   0.49961776   2.53391092
H   -2.91299852   0.36753093   4.26359219
H   -4.25903383   0.83896127   3.25413360
C   -3.78118474  -1.25300024   3.15221386
N   -4.07697610  -2.35428286   3.03231550
C   -2.73326037   2.16491914  -3.24316263
H   -3.17627104   1.29293496  -3.67708121
H   -2.04891582   1.87235328  -2.47441244
H   -2.20862741   2.71189514  -3.99846164
C   -3.83568200   3.05376565  -2.63800279
N   -4.65648502   3.71555227  -2.18743379
C   -2.30346915  -2.89848427   0.17337845
H   -3.32914589  -2.67076122  -0.02917925
H   -1.70880292  -2.01994071   0.03397835
H   -2.20630189  -3.23840365   1.18328559
C   -1.82298357  -4.00145337  -0.78797101
N   -1.46524021  -4.82266399  -1.50373937
C    0.86838044   4.28298483  -0.71065463
H    0.79357966   5.17849628  -0.12982396
H    1.89962268   4.04776448  -0.87224027
H    0.39669742   3.47782748  -0.18707478
C    0.17068942   4.49148430  -2.06762007
N   -0.34877326   4.64672163  -3.07794252
C   -0.00852053  -1.84391905   2.97995899
H   -0.53970719  -2.76847895   2.89090906
H    1.04290223  -2.02807891   2.90583454
H   -0.31083375  -1.18190927   2.19558098
C   -0.32216710  -1.20098944   4.34372852
N   -0.55569124  -0.72229912   5.35911693
C    1.85958132  -5.43417008  -1.26903076
H    1.59618025  -6.47060340  -1.30544553
H    2.90588583  -5.32499178  -1.46454561
H    1.30090217  -4.89802208  -2.00748998
C    1.53686539  -4.87126734   0.12760625
N    1.29658871  -4.45216067   1.16746599
C   -4.80984026   0.85821422   0.01714811
H   -5.29095467   0.37509262   0.84178295
H   -5.39954442   1.69246121  -0.30094003
H   -3.84200512   1.20010313   0.31931726
C   -4.66162086  -0.13921007  -1.14680025
N   -4.55126477  -0.88183780  -2.01341271
C    5.40431346  -1.04261324  -2.19460195
H    6.38275345  -0.90157797  -2.60407041
H    4.69761765  -0.46394935  -2.75194227
H    5.14028531  -2.07803872  -2.25012046
C    5.39320812  -0.58820255  -0.72321227
N    5.38493969  -0.24987314   0.37230423
C    4.34391442  -2.95844370   2.43996199
H    3.28574724  -2.94933118   2.59838982
H    4.72423264  -1.96105360   2.51392234
H    4.81018633  -3.57380602   3.18078505
C    4.64842773  -3.52139434   1.03926280
N    4.87515174  -3.94053669  -0.00362141
C    1.80171348  -1.34118192  -0.32021867
H    0.87075654  -1.70491373   0.06177417
H    1.79615579  -0.27121481  -0.31400658
H    2.60260589  -1.69726253   0.29352153
C    1.99690843  -1.84514380  -1.76227323
N    2.14223995  -2.22036632  -2.83594840
Cl  -0.95765809   0.85736720   0.08727242
