91
Energy:   -558.72338140
C    0.71068837   1.12140269  -3.44930448
H    0.70915239   0.26537932  -4.09127161
H    0.45754480   1.99284294  -4.01623421
H   -0.00755265   0.98286891  -2.66838366
C    2.11096919   1.29859932  -2.83333778
N    3.15354192   1.43053027  -2.37472258
C    3.07738326   1.40111311   1.12588248
H    2.07992952   1.39782101   0.73861593
H    3.75317327   1.05114815   0.37373124
H    3.34590521   2.39678041   1.41126237
C    3.15386784   0.47652092   2.35506083
N    3.21081408  -0.21187999   3.27023997
C   -1.64711499  -1.68307907  -2.97272655
H   -1.55226504  -1.13536017  -3.88700642
H   -0.93791970  -2.48421514  -2.96167533
H   -1.46120498  -1.03072481  -2.14521795
C   -3.07191306  -2.25725128  -2.86374608
N   -4.13273998  -2.68474859  -2.78260517
C   -0.02182827   1.87153930   3.79322865
H    0.64796006   1.15646673   4.22329260
H   -0.57107059   1.41247003   2.99793790
H   -0.70217517   2.21866025   4.54258453
C    0.78386798   3.06183325   3.24036894
N    1.38374545   3.94806121   2.82873976
C   -1.80412970   4.59460816   1.24523582
H   -1.50553279   3.62179326   0.91452260
H   -0.98264903   5.27293915   1.14555803
H   -2.62422075   4.93764602   0.64969003
C   -2.23588684   4.52472663   2.72182051
N   -2.55734965   4.47269666   3.82120493
C   -3.86462259   1.15893454   2.56504082
H   -2.93479650   0.77046810   2.20529446
H   -4.56622407   0.35878968   2.67649769
H   -3.71071576   1.63283723   3.51194526
C   -4.41460716   2.18758254   1.55955572
N   -4.82409568   2.95345772   0.81092637
C   -2.66840565   3.20426257  -2.19455868
H   -1.85292986   2.97629253  -1.54039579
H   -3.58537597   3.17882913  -1.64372507
H   -2.52948920   4.18002458  -2.61107976
C   -2.72226533   2.16460442  -3.32937587
N   -2.76236631   1.39053167  -4.17429885
C   -3.20270031  -2.28351341   0.83276743
H   -4.12500580  -2.50481041   0.33750952
H   -2.94583829  -1.25814262   0.66682844
H   -3.31071529  -2.45871772   1.88278424
C   -2.08949635  -3.18861696   0.27315640
N   -1.26066540  -3.86250770  -0.14349944
C    1.39452495   4.04617384  -0.60660936
H    1.42523651   4.86949938   0.07609998
H    2.39026363   3.70497130  -0.79892263
H    0.82091529   3.25012217  -0.17979232
C    0.74277185   4.49799728  -1.92671295
N    0.25751204   4.83440037  -2.90959008
C    0.23346768  -1.86462167   2.79072138
H    0.43480360  -1.05049493   2.12622030
H    0.08550637  -2.75976202   2.22350863
H    1.06196338  -1.99612278   3.45495132
C   -1.03576861  -1.55875879   3.60747541
N   -1.98077272  -1.33102997   4.21558591
C    1.63117886  -5.55829481  -0.88887842
H    1.42544844  -6.60556609  -0.96502331
H    2.55266974  -5.33873318  -1.38641872
H    0.83803708  -5.00480166  -1.34655795
C    1.74255030  -5.16362733   0.59551842
N    1.82547140  -4.86977945   1.70071934
C   -5.06428444   0.36409442  -1.44419853
H   -4.02196663   0.32679938  -1.20527836
H   -5.36826933   1.38387599  -1.55617097
H   -5.23963207  -0.16282896  -2.35880448
C   -5.87456384  -0.29157714  -0.31055745
N   -6.47785368  -0.77975442   0.53348987
C    5.28840884  -1.39190013  -2.66256449
H    6.16947520  -1.32484294  -3.26599268
H    4.51503199  -0.79026307  -3.09247167
H    4.96405930  -2.41053225  -2.61690195
C    5.60023790  -0.88825027  -1.24105140
N    5.83240881  -0.51326006  -0.18267029
C    4.77609334  -3.01452637   2.12198414
H    5.21658038  -2.03970079   2.09776782
H    5.31560538  -3.63274102   2.80874210
H    3.75636207  -2.93741754   2.43678800
C    4.83327808  -3.63875974   0.71533471
N    4.87585472  -4.10352985  -0.33197973
C    1.69484510  -1.68979047  -0.56705584
H    2.42708023  -2.17368333   0.04497323
H    0.71525246  -1.94514284  -0.22051215
H    1.82775625  -0.62954002  -0.51135378
C    1.85956259  -2.15179882  -2.02685597
N    1.98220225  -2.49578504  -3.11374353
Cl  -0.84197934   0.80778905   0.12867026
