91
Energy:   -559.91459808
C    2.23569238   2.86486458  -1.79093077
H    1.46637677   2.42516822  -1.19116350
H    1.82353490   3.17536019  -2.72827691
H    2.64357557   3.71318820  -1.28213078
C    3.34908554   1.82986337  -2.03736163
N    4.17805736   1.05925793  -2.22084061
C    0.95069635   1.63950912   3.93050182
H    0.83660526   2.69051253   4.09565394
H    0.50114538   1.37437340   2.99642148
H    1.99165253   1.39291984   3.90807314
C    0.26371959   0.86334993   5.06946619
N   -0.24776583   0.28546414   5.91747694
C    0.85845383  -0.64030609  -3.06045626
H    1.91666298  -0.79351486  -3.02019887
H    0.38988821  -1.49943591  -3.49317015
H    0.48198047  -0.48948000  -2.07029547
C    0.55164759   0.59963009  -3.92070517
N    0.32321639   1.52281894  -4.56119959
C   -2.95649912   1.02228626   3.55856548
H   -2.43547200   0.60597666   2.72183540
H   -4.01052485   0.98031823   3.37921236
H   -2.72201047   0.46198101   4.43945832
C   -2.52686717   2.48828679   3.75313891
N   -2.20698665   3.57979083   3.89800768
C   -3.62586013   3.69031688   0.43709251
H   -3.03721652   4.21725893   1.15870942
H   -4.00004039   4.38013430  -0.29025895
H   -3.01999284   2.95394548  -0.04827443
C   -4.80652512   2.99891596   1.14391281
N   -5.68558387   2.48413654   1.67017265
C   -4.45859958  -0.51916847   0.31028643
H   -4.51515679  -1.01789668  -0.63468533
H   -3.69924414   0.23366882   0.27137089
H   -5.40150095  -0.06366324   0.53017523
C   -4.11302992  -1.54048444   1.40987513
N   -3.85573761  -2.30090061   2.22856890
C   -1.39605375   3.76681331  -2.60734684
H   -1.20498742   3.60545716  -3.64771121
H   -2.43923349   3.95478313  -2.46125617
H   -1.10919523   2.89770079  -2.05304124
C   -0.58250783   4.97938403  -2.11804603
N    0.02321409   5.88219805  -1.75373934
C   -1.21710838  -2.75915810  -0.30511145
H   -1.58028386  -1.80542634   0.01644647
H   -0.15259817  -2.78902610  -0.20106820
H   -1.65586284  -3.52872232   0.29502563
C   -1.59502836  -2.98123446  -1.78141040
N   -1.87640696  -3.14658041  -2.88058207
C    0.20607385   4.53808569   1.45197431
H    0.17023495   5.49113864   0.96689097
H   -0.19941978   4.62446738   2.43838812
H   -0.36806538   3.83055285   0.89102822
C    1.66759669   4.06039438   1.53777638
N    2.75576688   3.70473148   1.60165993
C   -0.50369914  -1.99658396   3.04945895
H   -0.68440854  -1.24422491   2.31040539
H   -1.04282485  -1.75656751   3.94200287
H   -0.83085296  -2.94580410   2.67952573
C    1.00318495  -2.05869550   3.36097539
N    2.12512865  -2.10494037   3.59291355
C    1.42331981  -4.87952843  -2.29010278
H    2.09652418  -5.67457444  -2.04597596
H    0.46257188  -5.28606915  -2.52798331
H    1.33369109  -4.21851490  -1.45348644
C    1.96616693  -4.10150573  -3.50319704
N    2.37034128  -3.52223246  -4.40640086
C   -2.87816535   0.22843010  -3.05411998
H   -3.38104476  -0.71030747  -3.15796726
H   -2.15307638   0.15982728  -2.27025856
H   -2.38793784   0.47400250  -3.97296179
C   -3.90354400   1.32480851  -2.71038606
N   -4.66698501   2.14111208  -2.45446053
C    5.02239262  -2.23518935  -2.45984645
H    5.60851312  -2.27821317  -3.35400074
H    5.46922993  -1.54683846  -1.77325447
H    4.03166110  -1.90876616  -2.69816986
C    4.96161820  -3.63378582  -1.81810321
N    4.91636889  -4.67510447  -1.34029619
C    3.34846427  -4.64818915   1.69817766
H    3.93436878  -5.45740238   1.31504579
H    3.50180037  -4.56539678   2.75389190
H    3.64461181  -3.73679565   1.22219697
C    1.85827667  -4.91441195   1.41521769
N    0.74876427  -5.11262692   1.20454114
C    2.85171162   0.24913945   1.05357666
H    3.72507946   0.73670909   0.67357055
H    3.00631047  -0.01052247   2.08001418
H    2.01253336   0.90829931   0.97491786
C    2.57999694  -1.02757705   0.23640708
N    2.37769301  -1.97815051  -0.37201282
Cl  -0.83129700   1.01218487   0.23224068
