91
Energy:   -557.21571058
C    1.81648297   3.21725315  -1.67226799
H    1.13748855   2.39903332  -1.55233854
H    2.52901705   2.98063814  -2.43463772
H    1.27187274   4.09447382  -1.95295053
C    2.55204387   3.47288526  -0.34365879
N    3.09970239   3.66321498   0.64555115
C    1.60439165   2.07678513   3.30344895
H    2.50257525   1.51044938   3.17142538
H    1.85205122   3.10364435   3.47410646
H    0.99996791   1.99704854   2.42412358
C    0.82515103   1.52873571   4.51341833
N    0.24497097   1.12068801   5.41429552
C    0.85530491  -0.70656308  -3.22154949
H    0.28119465  -0.37317673  -2.38241235
H    0.94617250  -1.77225317  -3.19077930
H    0.36483771  -0.41642322  -4.12717627
C    2.25672176  -0.07017650  -3.17014007
N    3.30014031   0.40364224  -3.13186342
C   -2.71798501   1.51907989   3.77128029
H   -3.73250006   1.24977404   3.56359365
H   -2.41003752   1.06692690   4.69085905
H   -2.08825693   1.17649278   2.97694049
C   -2.60739338   3.05051338   3.88994351
N   -2.52505289   4.19073522   3.97829368
C   -3.89374416   3.68091569   0.37072932
H   -3.48638553   4.55012862   0.84341103
H   -4.36422622   3.96208589  -0.54823152
H   -3.10811235   2.98273236   0.17017565
C   -4.93361799   3.03008485   1.30168670
N   -5.70785132   2.54551171   1.99482679
C   -4.12064930  -0.41707944   0.95650287
H   -3.24244091  -0.61756062   1.53396067
H   -4.93509161  -0.19117256   1.61266512
H   -3.94047814   0.41725549   0.31127216
C   -4.47173718  -1.65449425   0.10966056
N   -4.73313807  -2.57580582  -0.52085203
C   -1.74495750   3.62956818  -2.67522115
H   -1.37810095   4.62840343  -2.78766928
H   -1.46299587   3.25208122  -1.71454414
H   -2.81164801   3.62980143  -2.75930686
C   -1.14353266   2.73495380  -3.77501808
N   -0.69574453   2.06887273  -4.59386688
C   -1.16693933  -2.87513854  -0.24677130
H   -1.95698058  -3.35157240   0.29521189
H   -1.24897155  -1.81388920  -0.13759422
H   -0.22326936  -3.20137368   0.13788011
C   -1.26998495  -3.24730161  -1.73756849
N   -1.34670710  -3.52439394  -2.84753476
C   -0.25239717   4.80228450   1.54830870
H   -0.70684478   3.84062568   1.43173316
H   -0.76920457   5.35132938   2.30749177
H    0.77232770   4.68059054   1.83120199
C   -0.32935393   5.57128985   0.21627701
N   -0.38665173   6.14384928  -0.77548114
C   -0.17647691  -1.66433395   3.04798930
H   -0.49140362  -2.67279932   2.87852268
H   -0.42152646  -1.06610027   2.19536613
H   -0.67447108  -1.27550185   3.91153461
C    1.34621235  -1.63353446   3.27617524
N    2.47992371  -1.61060284   3.44607005
C    1.53156841  -5.39346262  -1.88893906
H    1.27597228  -6.12314856  -2.62862090
H    1.46580029  -4.41456332  -2.31594000
H    0.85402744  -5.46910868  -1.06424821
C    2.96924776  -5.64327023  -1.39672545
N    4.03966538  -5.82926336  -1.03025004
C   -2.91136785  -0.29261759  -2.82968207
H   -3.39919019  -1.24489982  -2.82029663
H   -2.15219713  -0.27332890  -2.07590036
H   -2.46592007  -0.12950081  -3.78877971
C   -3.94302030   0.81543143  -2.54768812
N   -4.71113244   1.64042429  -2.33773080
C    5.09849192  -2.62936183  -2.41557769
H    4.88664118  -3.10798263  -1.48233519
H    5.05190910  -1.56770671  -2.29060752
H    6.07802801  -2.90712167  -2.74460292
C    4.06064147  -3.06872965  -3.46506441
N    3.28791463  -3.39585897  -4.24645497
C    3.46083799  -4.59652933   2.08652474
H    3.67277920  -4.16774409   3.04366857
H    3.77682729  -3.92405205   1.31657398
H    3.98503649  -5.52402945   1.98723450
C    1.94655604  -4.84661773   1.96001013
N    0.81910429  -5.03281992   1.86581426
C    2.92226767   0.05657649   0.43321331
H    3.46028721  -0.00801356   1.35585261
H    2.02420454   0.61876668   0.58262519
H    3.52991911   0.54347202  -0.30067466
C    2.56589679  -1.36036384  -0.05348978
N    2.30056248  -2.41534032  -0.41586236
Cl  -0.84304897   1.09763328   0.26145432
