91
Energy:   -557.69945870
C    1.73811681   4.22817319  -1.57923824
H    1.51628042   3.46446513  -0.86338994
H    1.15300079   5.09815573  -1.36553583
H    2.77774311   4.47567408  -1.52613869
C    1.40323974   3.71900022  -2.99352260
N    1.15390854   3.33989780  -4.04652159
C    3.81007164   1.21110945  -0.99088549
H    4.18499242   0.66604128  -1.83185831
H    4.07029414   2.24417826  -1.09064610
H    2.74532292   1.11395894  -0.94880165
C    4.42838340   0.64857643   0.30250044
N    4.88874461   0.22974504   1.26548506
C    1.06247535  -3.85978393  -4.37448618
H    0.25201955  -3.34257498  -3.90485177
H    0.67845860  -4.67307320  -4.95413331
H    1.59322340  -3.18555199  -5.01371766
C    2.01774416  -4.40404056  -3.29613270
N    2.72898520  -4.80926436  -2.49324952
C   -1.06277787   1.24168824   4.22359739
H   -0.81924429   0.83150024   5.18137470
H   -1.15461306   2.30472161   4.30375626
H   -0.28795666   1.00225531   3.52558374
C   -2.39627584   0.64668233   3.73436217
N   -3.38912570   0.20367337   3.37010430
C   -3.10445613   3.27663977   1.57719561
H   -2.24462225   2.65519550   1.43793724
H   -3.45588478   3.17909382   2.58311896
H   -2.84170796   4.29657081   1.38850761
C   -4.21434254   2.84350919   0.60141384
N   -5.04070342   2.52102378  -0.12510004
C   -3.15331987  -0.52985585  -0.15084359
H   -4.08058070  -0.21892161   0.28321566
H   -2.36626648   0.10725780   0.19489076
H   -2.94639638  -1.53985603   0.13548035
C   -3.24934129  -0.44069072  -1.68525861
N   -3.32083360  -0.37430322  -2.82770034
C    0.13236233   0.17824915  -3.21286512
H    0.11890161   0.64823043  -2.25170094
H   -0.57043058  -0.62848924  -3.22528994
H   -0.13237514   0.89349145  -3.96335937
C    1.54425872  -0.36648756  -3.49819040
N    2.59547975  -0.77206881  -3.71062804
C   -3.33752207  -3.84815591  -2.71834132
H   -4.19703764  -3.26818081  -2.98246642
H   -3.33308857  -4.75686764  -3.28325055
H   -2.45054420  -3.28985202  -2.93390130
C   -3.38342830  -4.17856174  -1.21490373
N   -3.41760757  -4.42456389  -0.09552610
C    0.17233256   5.08104623   1.58601309
H    1.12988674   5.45617677   1.29060280
H   -0.58492725   5.78994243   1.32348148
H   -0.01759975   4.15450813   1.08566125
C    0.15741891   4.85437989   3.10916770
N    0.14631502   4.68561650   4.24322554
C    2.93703612   2.59263365   3.11938477
H    2.75384826   3.15733696   4.00958282
H    3.69630874   1.86312243   3.30969387
H    2.03639999   2.09976617   2.81799584
C    3.40414831   3.53919629   1.99803497
N    3.75193456   4.24395520   1.16313907
C   -0.09020124  -6.02213817  -0.44313448
H   -0.75266848  -5.36453871   0.07993366
H    0.89571874  -5.60638847  -0.44675012
H   -0.07399351  -6.97426962   0.04480209
C   -0.57905926  -6.19660137  -1.89302428
N   -0.94303628  -6.32649715  -2.97253314
C   -2.06375631   2.88884481  -2.20758779
H   -1.59290526   2.83208303  -3.16674241
H   -3.10649744   2.67120960  -2.30870626
H   -1.61350402   2.17801777  -1.54660604
C   -1.88868849   4.30683346  -1.63290575
N   -1.75834254   5.36259046  -1.20502884
C    2.03363339  -2.08548421  -0.31128171
H    2.33880302  -2.83402541   0.38975877
H    2.00153358  -1.13305085   0.17527703
H    2.73228887  -2.04903927  -1.12088122
C    0.63507288  -2.43139057  -0.85531965
N   -0.40621899  -2.68893359  -1.26038063
C    2.46312558  -1.10415675   3.21452738
H    3.39732455  -0.66208275   3.49155271
H    1.97601591  -0.48456694   2.49083426
H    2.63744005  -2.07296496   2.79509418
C    1.56876706  -1.23779963   4.46106756
N    0.90287650  -1.33730283   5.38917339
C   -1.26709184  -2.44855989   2.37030398
H   -0.98166437  -1.56307545   1.84176955
H   -1.50249499  -2.19875348   3.38375414
H   -2.12528931  -2.88278395   1.90142697
C   -0.10392457  -3.45757378   2.34722020
N    0.76210633  -4.20883049   2.33003327
Cl   0.27800388   1.25593423   0.65228127
