91
Energy:   -559.42219624
C    2.66529223   2.97820942  -0.19569714
H    3.57458716   2.46134002  -0.42137156
H    2.66264831   3.92748549  -0.68942484
H    1.83203153   2.39816152  -0.53351384
C    2.55966487   3.19070279   1.32591038
N    2.48102050   3.34891376   2.45881633
C   -0.23670558   1.68353388   3.85525250
H   -0.12557318   2.69136843   4.19704088
H   -0.44543568   1.68378193   2.80580942
H    0.66820317   1.14283853   4.03879483
C   -1.39863205   1.01084444   4.60958385
N   -2.26373913   0.50999658   5.17121782
C    1.94480136  -0.29131776  -2.31934150
H    2.59772739   0.23297483  -1.65322961
H    1.08481906  -0.63175644  -1.78135354
H    1.63649552   0.36470152  -3.10641539
C    2.68653886  -1.50010946  -2.91954821
N    3.23879614  -2.40010983  -3.36642939
C   -4.05343325   1.00501310   2.14202806
H   -4.95009180   0.88192849   1.57127960
H   -4.12351197   0.43365908   3.04399405
H   -3.21627402   0.66527889   1.56875311
C   -3.86693742   2.49345155   2.49041042
N   -3.72808280   3.60166164   2.74979692
C   -3.56588423   3.72280016  -0.95854265
H   -3.42897180   4.31182987  -0.07582006
H   -3.61706995   4.36597692  -1.81212497
H   -2.74229233   3.04867739  -1.06878767
C   -4.87462561   2.91957540  -0.84181224
N   -5.84904305   2.32153806  -0.75490114
C   -3.98362886  -0.48285865  -1.66441388
H   -3.31802091   0.30625382  -1.38304626
H   -4.92525862  -0.06772626  -1.95749677
H   -3.56389264  -1.02843526  -2.48360052
C   -4.19047055  -1.43085027  -0.46853411
N   -4.34447359  -2.13667311   0.42185273
C   -0.14632386   4.16382254  -2.52427965
H   -1.09399797   4.25162608  -3.01326278
H    0.23668765   5.13985993  -2.31084982
H   -0.26544333   3.61978014  -1.61064541
C    0.83781293   3.41569989  -3.44264084
N    1.57054750   2.85868856  -4.12640249
C   -0.93068000  -2.81309722  -0.75846585
H   -0.88664433  -1.80203567  -0.41102438
H   -0.04642485  -3.33343579  -0.45475596
H   -1.78968227  -3.29629491  -0.34189149
C   -1.03040391  -2.82392806  -2.29519544
N   -1.10465290  -2.83199212  -3.43936047
C   -0.72041210   4.70710484   1.70593823
H   -0.92832412   3.77825038   1.21716204
H   -1.64031303   5.20301153   1.93562917
H   -0.18000690   4.52101456   2.61049985
C    0.12501747   5.59805845   0.77693312
N    0.75447821   6.26141392   0.08524659
C   -1.69524492  -1.95923714   2.60387641
H   -1.55075937  -1.19590618   1.86811154
H   -2.48633537  -1.67241085   3.26478917
H   -1.95107123  -2.87812700   2.11901208
C   -0.39641627  -2.14816441   3.40945113
N    0.57062070  -2.28882935   4.00923812
C    1.96341138  -5.17026545  -1.76369563
H    2.15045290  -5.47708938  -2.77155213
H    1.82059199  -4.11024925  -1.73424437
H    1.08392928  -5.65890541  -1.39949607
C    3.16556346  -5.55102369  -0.87969703
N    4.06062033  -5.83451550  -0.22151989
C   -1.29503645   0.54409809  -3.99104490
H   -1.05542230   0.34744924  -2.96692847
H   -0.40313734   0.80227477  -4.52279659
H   -1.73142904  -0.32907627  -4.42925390
C   -2.29549239   1.71226446  -4.06898884
N   -3.04037732   2.58201742  -4.12702164
C    5.61724618  -2.60394382  -0.77778292
H    5.42371099  -2.86797710  -1.79647361
H    4.98226691  -3.17620984  -0.13418987
H    6.64087172  -2.81014488  -0.54417863
C    5.33643158  -1.10351992  -0.57413789
N    5.12735235   0.01361387  -0.42251490
C    2.31403493  -5.03810156   2.73796513
H    2.10962335  -4.51147617   3.64669049
H    3.00653908  -4.47525513   2.14759151
H    2.73559596  -5.99449737   2.96707740
C    1.00481144  -5.22963184   1.95002478
N    0.03003504  -5.37223484   1.36336737
C    2.32879786  -0.22448699   1.87355978
H    2.31659819  -0.47162253   2.91455707
H    1.46297109   0.35712964   1.63488596
H    3.21011307   0.34013206   1.65132582
C    2.32406449  -1.51852138   1.03866302
N    2.32054029  -2.48198880   0.41704443
Cl  -0.78788386   1.10422502  -0.08948397
