91
Energy:   -559.14913695
C    2.40820453   3.23237960  -0.94292020
H    3.25859577   2.95345913  -1.52938271
H    2.03604034   4.17687567  -1.28103271
H    1.64444268   2.49022195  -1.04669374
C    2.81916192   3.34260069   0.53713566
N    3.12513837   3.42466530   1.63910452
C    1.12169054   1.63357302   3.70216409
H    1.55519149   2.59391244   3.88851137
H    0.72332451   1.60864115   2.70939926
H    1.87200784   0.87762741   3.80448365
C   -0.00877549   1.37528151   4.71554064
N   -0.85045883   1.18297175   5.47004555
C    1.52761722  -0.30791010  -2.94072371
H    0.86468085   0.22394235  -2.29068639
H    1.38377639  -1.36051135  -2.81328934
H    1.32235618  -0.04023407  -3.95616280
C    2.98419836   0.05632615  -2.59822794
N    4.06868922   0.32751660  -2.34322428
C   -3.28200410   1.49932014   3.09438195
H   -3.08162025   0.49077450   3.39032483
H   -3.20573609   2.14274096   3.94590525
H   -2.57112754   1.80171885   2.35403836
C   -4.70330933   1.58959899   2.50842873
N   -5.76153567   1.65681570   2.07215993
C   -3.97083902   3.44538818  -0.44943796
H   -4.01606845   3.98895038  -1.36997835
H   -4.88100434   2.89977265  -0.31231805
H   -3.14695102   2.76327017  -0.47812047
C   -3.78156726   4.43008521   0.71938536
N   -3.64064583   5.16323692   1.58962744
C   -4.30478778  -0.43076326  -0.48396920
H   -3.47158092   0.23464599  -0.57283443
H   -5.20727021   0.13741132  -0.39677865
H   -4.35797353  -1.05366855  -1.35233512
C   -4.12853470  -1.30968544   0.76824111
N   -3.99730628  -1.96408296   1.70056860
C   -0.96839756   4.05130562  -2.52968119
H   -0.59980160   5.05434587  -2.47539067
H   -0.90897558   3.59666387  -1.56289838
H   -1.98724745   4.06291488  -2.85634496
C   -0.11803969   3.24531164  -3.52911363
N    0.51509039   2.64521248  -4.27323651
C   -0.83879141  -2.42699964  -0.44289949
H   -0.02995749  -1.83148321  -0.81174642
H   -0.44841183  -3.29270421   0.05011012
H   -1.41758490  -1.85261793   0.24990845
C   -1.73173401  -2.86481177  -1.61872858
N   -2.39657037  -3.19078280  -2.49418678
C   -0.34115266   4.58668413   2.02498513
H   -0.73859526   3.65039729   1.69286089
H   -1.07115524   5.09246121   2.62179740
H    0.53887787   4.41372578   2.60853527
C    0.01494008   5.45522864   0.80415411
N    0.28006732   6.10189951  -0.10481008
C   -0.91534684  -1.73929380   3.11480733
H   -1.27852633  -2.65332532   2.69344378
H   -1.03532110  -0.94714461   2.40557892
H   -1.46860203  -1.51079305   4.00170935
C    0.57630991  -1.89274491   3.46553928
N    1.68691616  -2.00699623   3.72667517
C    1.11216488  -5.26140480  -1.84249714
H    0.85838788  -5.72067905  -2.77500161
H    1.18147684  -4.20177960  -1.97398628
H    0.35577850  -5.48226037  -1.11861763
C    2.46629001  -5.80759542  -1.35298623
N    3.47449772  -6.21425916  -0.98852310
C   -2.06953262   0.18869250  -3.51603435
H   -2.51354230  -0.74728013  -3.78382309
H   -1.65631116   0.11873328  -2.53152796
H   -1.29316530   0.42742152  -4.21256958
C   -3.14261108   1.29289305  -3.54508198
N   -3.94156678   2.11502055  -3.56670926
C    5.13378715  -3.17207992  -2.21956667
H    6.02660271  -3.54664033  -2.67507195
H    4.90411535  -3.75526352  -1.35236033
H    5.28011789  -2.15122219  -1.93437216
C    3.96874693  -3.26291665  -3.22257712
N    3.10132152  -3.33054872  -3.96936399
C    2.97330877  -4.89526546   2.36223089
H    3.23260856  -3.85760160   2.33194042
H    3.57887796  -5.43474612   1.66427268
H    3.14028164  -5.27599159   3.34816535
C    1.48822521  -5.06431615   1.99135533
N    0.38251299  -5.19018207   1.71522163
C    2.89935456  -0.18663468   1.03428102
H    3.18542014  -0.32082579   2.05656249
H    1.97990206   0.35883091   0.98985706
H    3.66254342   0.35819983   0.51891977
C    2.71253646  -1.56271933   0.36863094
N    2.57344189  -2.58727690  -0.12697580
Cl  -0.71958172   1.14637555   0.11380988
