91
Energy:   -557.04435680
C    3.42808236   0.87978608  -0.93692357
H    4.03213675  -0.00306212  -0.91247903
H    2.67312898   0.81643602  -0.18132363
H    4.04219230   1.73723787  -0.75652262
C    2.76140366   1.00751485  -2.31924946
N    2.26503107   1.10261474  -3.34845392
C    2.88727279   2.57861098   2.69318850
H    2.38006350   2.59150016   3.63524624
H    2.16832834   2.54391820   1.90147241
H    3.48215795   3.46270290   2.59627504
C    3.79582927   1.33755820   2.61629172
N    4.47229087   0.41353799   2.55903856
C   -1.24983776   1.15986177  -3.39568426
H   -2.07857144   0.51272401  -3.59396031
H   -1.02056674   1.13584290  -2.35081250
H   -0.39897522   0.83138490  -3.95517954
C   -1.61166631   2.59858933  -3.80889499
N   -1.88106411   3.66978740  -4.11654916
C   -2.04787326   1.94251875   4.08121800
H   -1.86596098   1.82802057   3.03302991
H   -2.84218041   2.64364634   4.23086870
H   -2.32262326   0.99737014   4.50086743
C   -0.77104553   2.45851929   4.77045991
N    0.17961074   2.84270516   5.28363183
C   -2.82769852   3.32034093  -0.60398328
H   -2.52169942   4.26431447  -1.00420657
H   -3.55573890   2.87765451  -1.25119656
H   -1.97879317   2.67357084  -0.52686494
C   -3.44206479   3.52972804   0.79255212
N   -3.89948840   3.68562625   1.83233621
C   -3.55852906  -3.75434864  -2.03172283
H   -2.60847120  -4.24595237  -2.00690324
H   -3.44781288  -2.78641462  -2.47415332
H   -4.24551149  -4.33494390  -2.61126004
C   -4.09651053  -3.60428476  -0.59657240
N   -4.49706219  -3.49255539   0.47196234
C    0.82126175   3.88785980  -1.62638850
H    0.33032844   3.03134902  -1.21374586
H    1.14511263   3.66803640  -2.62222853
H    0.14103723   4.71356167  -1.64663960
C    2.04075255   4.24858360  -0.75787222
N    2.94871889   4.51715887  -0.11122237
C   -1.31423412  -2.84763597   2.18457988
H   -2.37160284  -2.80041594   2.34155706
H   -0.94295894  -1.86955376   1.96006035
H   -0.83833781  -3.21531534   3.06958479
C   -1.01170670  -3.79412300   1.00804282
N   -0.78646128  -4.49882561   0.13205749
C   -0.09084557   4.74615738   2.19904752
H    0.96125763   4.91154965   2.30212235
H   -0.26613119   3.72857097   1.91852666
H   -0.57659681   4.94800383   3.13082154
C   -0.65368977   5.68217353   1.11337714
N   -1.07275286   6.37908010   0.30504620
C    1.30837033  -0.48494134   4.37945096
H    1.61175964   0.39792314   4.90233280
H    1.21021144  -0.26591338   3.33671865
H    2.04354644  -1.25039462   4.51545260
C   -0.04511453  -0.96916310   4.93190732
N   -1.05284553  -1.32968821   5.34323620
C    1.15872647  -5.42802462  -2.41992269
H    1.62678144  -4.66028610  -1.83992072
H    1.29489570  -6.37303656  -1.93690150
H    0.11284988  -5.22032819  -2.50882402
C    1.79437687  -5.47181110  -3.82193243
N    2.26764749  -5.50441213  -4.86579241
C   -3.67861227  -0.11324845   1.30401679
H   -2.68033016  -0.08196853   1.68788470
H   -4.17971344  -0.97912991   1.68355075
H   -4.20583360   0.76639588   1.60924230
C   -3.63537651  -0.17807654  -0.23401051
N   -3.60318551  -0.22634399  -1.37914175
C    2.56819327  -1.98520715  -5.10048881
H    3.40166069  -2.19353250  -5.73832327
H    2.27688313  -0.96223246  -5.21693743
H    1.74937525  -2.62147366  -5.36430894
C    2.96637865  -2.24194553  -3.63517867
N    3.26284577  -2.43309892  -2.54418867
C    2.67932499  -2.14696132   0.99598477
H    3.67386506  -1.77958877   1.14030258
H    1.99802073  -1.32319983   0.94971811
H    2.63268394  -2.70019124   0.08129337
C    2.29562712  -3.06506802   2.17133835
N    2.00994662  -3.74864019   3.04644251
C   -0.03995813  -1.62479276  -1.58262157
H    0.54772959  -2.32874214  -1.03127903
H   -0.91812477  -1.37780755  -1.02340717
H    0.53411105  -0.73844351  -1.75504167
C   -0.44811682  -2.24278738  -2.93283975
N   -0.75200952  -2.70291247  -3.93813856
Cl  -0.04752507   0.93079615   0.88805735
