91
Energy:   -558.36424912
C    1.42841298   1.55612284  -3.13825691
H    1.44146616   0.72721893  -3.81475383
H    1.37385838   2.46901410  -3.69373188
H    0.57666114   1.47839030  -2.49531403
C    2.71403224   1.54712060  -2.29049392
N    3.67123422   1.54041802  -1.65929585
C    2.73187840   1.44997938   1.67912168
H    1.86624971   1.39025843   1.05300623
H    3.59510746   1.14722126   1.12407915
H    2.85967506   2.45753788   2.01586042
C    2.55140010   0.52154557   2.89445630
N    2.41702580  -0.16971560   3.79932817
C   -1.22824175  -0.95647217  -3.54749077
H   -0.81137254  -0.42984075  -4.38042510
H   -1.04421803  -2.00452257  -3.65985055
H   -0.77425234  -0.60961288  -2.64279118
C   -2.74648644  -0.70523627  -3.48906491
N   -3.87688862  -0.51817971  -3.44556421
C   -0.63866662   1.88813350   3.76912118
H   -1.59975153   2.09688516   4.19059325
H   -0.03773726   1.37295902   4.48910608
H   -0.75597436   1.27629591   2.89918282
C    0.04852485   3.20974439   3.37833664
N    0.56017013   4.19374377   3.08737980
C   -2.41789993   4.26092422   0.70984334
H   -1.61054663   4.79108162   1.17029308
H   -3.04044840   4.95035410   0.17878879
H   -2.02549863   3.53612088   0.02750879
C   -3.24864674   3.54880395   1.79351508
N   -3.86717550   3.01859804   2.60035796
C   -3.71316213  -0.34002959   2.86368363
H   -4.56273024   0.30994616   2.88948535
H   -4.01480548  -1.30786134   2.52132112
H   -2.97765966   0.06061100   2.19778399
C   -3.11485088  -0.45917773   4.27769472
N   -2.66938096  -0.54788893   5.33049025
C   -2.43357969   2.92866986  -3.19913849
H   -2.38281277   3.99056108  -3.07785400
H   -1.99554311   2.45109015  -2.34770401
H   -3.45663842   2.62849854  -3.28939984
C   -1.66465018   2.51971965  -4.46922003
N   -1.09214721   2.21523763  -5.41485347
C   -3.12746527  -2.38644617  -0.33429542
H   -3.82379695  -2.11523865  -1.10010796
H   -2.72458662  -1.50098821   0.11129643
H   -3.62737765  -2.96619662   0.41328476
C   -1.98561013  -3.21677402  -0.94937468
N   -1.13544708  -3.83499084  -1.40732916
C    1.22512512   4.14726788  -0.22371808
H    1.23357006   4.93528990   0.50005685
H    2.22695442   3.81707267  -0.40318469
H    0.64102229   3.33025451   0.14535122
C    0.61175576   4.66422891  -1.53830141
N    0.15507440   5.04912989  -2.51706845
C   -0.16794376  -2.08206981   2.78554215
H   -0.28887576  -1.29994065   2.06543826
H    0.72393220  -2.63193525   2.56850679
H   -0.09554835  -1.65714720   3.76487804
C   -1.38172420  -3.02792852   2.72481044
N   -2.28543891  -3.73216333   2.67959292
C    1.83617078  -5.50071928  -1.34787989
H    1.33051598  -6.43116793  -1.50110753
H    2.86560887  -5.60513374  -1.62037562
H    1.38201800  -4.74409593  -1.95299595
C    1.73595471  -5.10026130   0.13576095
N    1.66133929  -4.80210213   1.24039900
C   -4.76415504   1.11548920  -0.56766180
H   -4.87751138   0.98939533   0.48881861
H   -3.74925709   0.91853414  -0.84350586
H   -5.41149112   0.43450047  -1.07962803
C   -5.13002161   2.56055547  -0.95434661
N   -5.40242591   3.63647298  -1.24225104
C    5.49424054  -1.38554828  -1.87778470
H    4.84408952  -1.17016294  -2.69986315
H    6.50861326  -1.39466786  -2.21817259
H    5.37753597  -0.63463733  -1.12451723
C    5.13800028  -2.76316969  -1.28884316
N    4.87276321  -3.78887145  -0.85034942
C    4.15859140  -3.04934003   2.67475560
H    3.13212988  -2.78162997   2.81478503
H    4.59099111  -3.31037081   3.61804374
H    4.22165107  -3.88535669   2.00992575
C    4.92283890  -1.85571206   2.07244504
N    5.49185591  -0.96700177   1.62399746
C    1.66469451  -1.63995349  -0.43169902
H    2.39509627  -2.18423689   0.12970015
H    0.68587559  -1.98804992  -0.17549306
H    1.74360073  -0.59754785  -0.20352501
C    1.90866396  -1.85587889  -1.93684192
N    2.09031031  -2.01664516  -3.05748922
Cl  -0.92583805   0.82162092  -0.00481336
