91
Energy:   -558.58917337
C    2.39146477   0.23638167  -2.83364917
H    2.47114801  -0.78201824  -3.15210229
H    2.60150666   0.88534351  -3.65804593
H    1.39981620   0.42207093  -2.47720604
C    3.40171160   0.50084304  -1.70180928
N    4.15388629   0.69774655  -0.85910304
C    2.39758282   1.73950070   1.93491884
H    2.56600284   2.79449497   1.99426511
H    1.79689898   1.52193764   1.07658072
H    3.33618229   1.23263316   1.85116068
C    1.66883668   1.26373529   3.20542124
N    1.12625206   0.90950632   4.15136803
C   -0.45096290  -2.15383099  -2.98845299
H    0.25322876  -2.04345334  -3.78646995
H   -0.44315457  -3.16664472  -2.64342186
H   -0.18362116  -1.50091804  -2.18400773
C   -1.86048539  -1.79470358  -3.49429273
N   -2.90993895  -1.52731690  -3.87091341
C   -1.37350711   3.06741392   2.72076582
H   -2.34568985   3.51372655   2.74455523
H   -1.09766310   2.76056767   3.70801176
H   -1.38786932   2.21555027   2.07344740
C   -0.35062720   4.09273528   2.19728438
N    0.41095338   4.85613364   1.80752866
C   -1.84399083   4.53438848  -1.06081665
H   -2.49924446   5.05147361  -0.39136476
H   -0.89598005   5.02992238  -1.08573232
H   -1.71144501   3.52762758  -0.72352866
C   -2.45611028   4.52595713  -2.47391208
N   -2.91186103   4.51967960  -3.52602586
C   -4.28202413   1.14289013   1.42295968
H   -3.38084488   0.76752527   0.98492159
H   -5.10684648   0.53191484   1.12083987
H   -4.19537781   1.12327121   2.48926480
C   -4.51662733   2.59072180   0.95355067
N   -4.69130008   3.66869828   0.60405433
C   -1.00861827   1.78081862  -4.36075874
H   -0.66711180   2.77570265  -4.55692013
H   -0.92899216   1.57637861  -3.31349419
H   -2.03001377   1.68770640  -4.66568567
C   -0.14468682   0.77718033  -5.14684566
N    0.49854941   0.02992600  -5.73212310
C   -3.39690954  -2.09874461  -0.27956290
H   -4.00472700  -2.39712360  -1.10807246
H   -2.98249950  -1.13109591  -0.47144670
H   -3.99542125  -2.06109211   0.60658896
C   -2.25713595  -3.11618598  -0.08635515
N   -1.40852271  -3.87371732   0.05749681
C    1.84632185   3.73505995  -1.05789434
H    1.73834144   4.73693010  -0.69803795
H    2.77588858   3.33112816  -0.71490179
H    1.03975347   3.13537124  -0.69085212
C    1.82470721   3.73757915  -2.59774059
N    1.80861412   3.73945481  -3.74422611
C   -1.10889446  -1.41685772   2.97695327
H   -0.90121336  -0.60416780   2.31264623
H   -0.81055832  -2.33684627   2.51922440
H   -0.56617535  -1.27974230   3.88884932
C   -2.61829352  -1.45977170   3.27939809
N   -3.74210973  -1.49172311   3.50458200
C    1.44689744  -5.72109653   0.93283349
H    1.24829274  -6.76751082   1.03517353
H    2.48870494  -5.57309242   0.73884635
H    0.87326009  -5.32700167   0.12010444
C    1.05892403  -4.99525817   2.23446144
N    0.77006019  -4.45483852   3.20358261
C   -4.19652525   1.30245947  -2.51453251
H   -3.26568356   1.10414370  -2.02554909
H   -4.44125072   2.33872252  -2.40885645
H   -4.11250244   1.05995539  -3.55329669
C   -5.30495173   0.44546487  -1.87535258
N   -6.13022563  -0.19260657  -1.39945406
C    5.64725596  -2.08995103   0.46250530
H    5.43647116  -1.13379529   0.89405618
H    5.27828280  -2.11728138  -0.54149219
H    6.70456587  -2.25420388   0.45852438
C    4.95993691  -3.19036588   1.29213153
N    4.44819663  -4.00967476   1.90982597
C    2.80769180  -2.17884407   4.58478711
H    3.03402192  -3.19930808   4.35603383
H    1.85509375  -1.92315206   4.16996470
H    2.78087099  -2.04881560   5.64651793
C    3.89157857  -1.26528625   3.98295524
N    4.69858153  -0.58510093   3.53486406
C    1.57373535  -1.82608965   0.58438197
H    0.50669561  -1.88457347   0.53047448
H    1.87780382  -0.80146652   0.53350069
H    1.90810822  -2.25195081   1.50727748
C    2.19059773  -2.60368768  -0.59308230
N    2.64987981  -3.18264476  -1.46975797
Cl  -0.72496050   0.79517765  -0.38229442
