91
Energy:   -558.63983939
C    0.82163035   1.85855369  -3.17290285
H    0.84097715   1.10100093  -3.92830983
H    0.58702321   2.80200717  -3.61984145
H    0.07839466   1.61516544  -2.44265497
C    2.20115060   1.94129289  -2.49343384
N    3.22826612   2.00289599  -1.98753829
C    2.75830596   1.39273384   1.55973626
H    2.52223405   2.22134910   2.19421792
H    1.98422312   1.26932133   0.83140652
H    3.68846669   1.57680752   1.06393692
C    2.87343773   0.11283824   2.40838927
N    2.95915857  -0.84010221   3.04025001
C   -1.66909910  -0.74802343  -3.43143415
H   -1.54511890  -0.00127353  -4.18767067
H   -1.00609535  -1.56523667  -3.62505140
H   -1.44537502  -0.32641302  -2.47378531
C   -3.12376569  -1.25341362  -3.44265323
N   -4.20683108  -1.62969959  -3.45100634
C   -0.08852161   0.65059957   4.21734773
H    0.19315510  -0.29305597   4.63576455
H    0.74998187   1.31493376   4.23905240
H   -0.40705641   0.51124686   3.20541122
C   -1.24229377   1.25317831   5.04033538
N   -2.10132959   1.70182557   5.65308709
C   -2.25323152   3.63893946   2.49396663
H   -2.63469686   4.48532066   1.96196735
H   -2.83290965   3.48358705   3.37982101
H   -2.31260752   2.77031998   1.87197485
C   -0.78444374   3.89453775   2.87988370
N    0.30913552   4.08484230   3.16721650
C   -3.87215005   0.19799278   2.98036541
H   -4.19630951   1.20377645   3.14835362
H   -3.01297217   0.20197697   2.34263775
H   -3.61997567  -0.25639291   3.91569467
C   -5.00512126  -0.60134378   2.31026296
N   -5.84866983  -1.19648619   1.81134122
C   -2.31844902   4.02240604  -1.43565630
H   -1.70532105   3.48721179  -0.74100431
H   -3.27057019   4.22265159  -0.99038549
H   -1.84349053   4.94615594  -1.69256025
C   -2.51413777   3.17497094  -2.70654562
N   -2.65983693   2.54401698  -3.65278049
C   -3.09193433  -2.45788842   0.04336315
H   -3.97443956  -2.33641651  -0.54936722
H   -2.74975692  -1.49956163   0.37415533
H   -3.31403701  -3.06990916   0.89248040
C   -1.99460242  -3.13114021  -0.80173727
N   -1.17758894  -3.63240677  -1.43095294
C    1.46845537   4.32166108  -0.00369111
H    1.37608665   5.02256049   0.79949518
H    2.47882292   3.97383236  -0.05911391
H    0.81478130   3.49245485   0.16958997
C    1.08802462   5.00694155  -1.32930912
N    0.80477664   5.51716401  -2.31629199
C    0.17272457  -2.55323122   2.09430859
H    0.30895646  -1.57066726   1.69317380
H    0.04518251  -3.25100215   1.29321694
H    1.03199571  -2.82536678   2.67093190
C   -1.07649260  -2.57144853   2.99471104
N   -2.00659158  -2.58501215   3.66510159
C    1.77000213  -5.17235054  -2.36934801
H    0.96685604  -4.56498280  -2.73123331
H    1.66167572  -6.16813159  -2.74562529
H    2.70237463  -4.76527656  -2.70081654
C    1.73992169  -5.19920802  -0.82987608
N    1.71752544  -5.21920463   0.31633075
C   -4.61504247   0.81824991  -0.99125994
H   -5.24927002  -0.00413089  -0.73368388
H   -3.59117015   0.51938087  -0.90604343
H   -4.81545053   1.12168165  -1.99757246
C   -4.88740238   1.99529873  -0.03628551
N   -5.09018672   2.87166507   0.67473636
C    5.32739452  -0.69499850  -2.68990367
H    6.29150771  -0.47949287  -3.10093074
H    4.60073317  -0.03914712  -3.12201633
H    5.06585490  -1.70960575  -2.90685587
C    5.36206295  -0.48882487  -1.16416106
N    5.38787517  -0.33531923  -0.02817633
C    4.49981334  -3.41601712   1.47330370
H    4.95155375  -4.19254305   2.05454225
H    3.44807552  -3.39031996   1.66846084
H    4.93455680  -2.47447169   1.73672241
C    4.73765590  -3.69050704  -0.02325442
N    4.91474050  -3.89487726  -1.13750997
C    1.69546740  -1.47704382  -0.98603673
H    2.23504825  -2.26495385  -0.50338731
H    0.65544534  -1.55933220  -0.74837767
H    2.06510057  -0.53187731  -0.64702243
C    1.88373353  -1.58494201  -2.51067237
N    2.02390622  -1.66527712  -3.64583291
Cl  -0.86988323   0.83298005   0.25451547
