91
Energy:   -559.42056789
C    2.15106910   3.22365530  -1.44145545
H    2.87389602   2.93683459  -2.17640804
H    1.71368786   4.16024144  -1.71786662
H    1.38705238   2.47688696  -1.38217149
C    2.83985488   3.36326721  -0.07116984
N    3.35268720   3.46721463   0.94907009
C    1.78976594   1.72175084   3.39664303
H    2.55209935   0.97188964   3.35848392
H    2.24334287   2.68808256   3.46992369
H    1.19643949   1.67273911   2.50756448
C    0.89370892   1.48073494   4.62570493
N    0.22655374   1.30128764   5.54079738
C    0.94089344  -0.35115685  -3.16587278
H    0.41109399   0.18720351  -2.40799360
H    0.82953859  -1.40241940  -3.00050577
H    0.54456710  -0.09730989  -4.12680267
C    2.43409264   0.02168968  -3.11163633
N    3.54584732   0.29929087  -3.07125482
C   -2.61320421   1.55930478   3.60563223
H   -2.12369949   0.96721552   2.86083989
H   -2.43898167   1.13299070   4.57144893
H   -2.22524406   2.55617785   3.58053075
C   -4.12685058   1.59029232   3.32364920
N   -5.25382911   1.61336395   3.11370003
C   -4.03529536   3.39854785   0.25243304
H   -4.27216220   3.92916598  -0.64603158
H   -4.89359618   2.84953016   0.57923322
H   -3.22882011   2.72094846   0.06440156
C   -3.61979334   4.40026782   1.34582920
N   -3.31043320   5.14609387   2.15991234
C   -4.32790266  -0.47207229   0.33910393
H   -3.53175184   0.19800579   0.09002680
H   -5.20068708   0.09097294   0.59625468
H   -4.54255658  -1.09888183  -0.50109401
C   -3.90866561  -1.34471243   1.53674306
N   -3.59652458  -1.99443269   2.42843983
C   -1.48213085   4.00505343  -2.35967594
H   -1.12581884   5.01328683  -2.39719072
H   -1.23300790   3.57373132  -1.41268170
H   -2.54453103   3.99726275  -2.48673593
C   -0.82444133   3.18594374  -3.48577710
N   -0.33476160   2.57607934  -4.32421060
C   -0.88167320  -2.43291667  -0.22863960
H   -1.32945068  -1.85375454   0.55172362
H   -0.16497713  -1.83412800  -0.75084450
H   -0.39315001  -3.28530384   0.19524752
C   -1.97182512  -2.90148574  -1.21027692
N   -2.78349277  -3.25035671  -1.94115052
C    0.01479905   4.63464404   1.96025208
H   -0.43911140   3.69415645   1.72712427
H   -0.58553699   5.15195734   2.67919762
H    0.99157584   4.46882971   2.36437063
C    0.12629770   5.48234889   0.67940684
N    0.20931351   6.11350368  -0.27424067
C   -0.30999353  -1.67036829   3.27457345
H   -0.56790716  -0.91323690   2.56384650
H   -0.68780994  -1.39867357   4.23807531
H   -0.73885024  -2.60324621   2.97337616
C    1.22221829  -1.80846222   3.34426560
N    2.36301964  -1.91127942   3.39615457
C    0.78765324  -5.30448381  -1.89791353
H    0.35846100  -5.80498112  -2.74064519
H    0.81534288  -4.25127119  -2.08466352
H    0.19437891  -5.49708297  -1.02852856
C    2.21939093  -5.82278278  -1.66749358
N    3.28538472  -6.20867993  -1.49593546
C   -2.70168839   0.11346748  -3.06147877
H   -2.11010951   0.06823064  -2.17103605
H   -2.07304229   0.34432135  -3.89599039
H   -3.17598082  -0.83197321  -3.22299561
C   -3.77527558   1.20704749  -2.90951393
N   -4.57461004   2.02126752  -2.79636921
C    4.63991071  -3.19147355  -3.10549034
H    5.42935758  -3.56550060  -3.72337187
H    4.59427360  -3.76147708  -2.20110529
H    4.82684105  -2.16441982  -2.87072068
C    3.30033832  -3.31096500  -3.85573538
N    2.30296579  -3.39993182  -4.41432691
C    3.44938951  -4.85349287   1.78864162
H    3.79815891  -4.60976118   0.80688047
H    3.88766170  -5.77737351   2.10369898
H    3.72783888  -4.07622832   2.46924786
C    1.91587628  -4.99326699   1.76863244
N    0.77410597  -5.09733518   1.75373469
C    3.03407174  -0.15793972   0.48555276
H    3.67623199   0.39149861  -0.17068494
H    3.51344082  -0.27950222   1.43440835
H    2.11591782   0.37589567   0.61559986
C    2.74136265  -1.54208742  -0.12276997
N    2.52342743  -2.57264829  -0.57569389
Cl  -0.70602309   1.15468289   0.23377290
