91
Energy:   -556.97383676
C    2.33219567   3.18863698  -0.74391963
H    3.11775414   2.88919335  -1.40583472
H    1.96668346   4.15079340  -1.03641740
H    1.53582254   2.47549090  -0.78987185
C    2.87382601   3.26122335   0.69586084
N    3.27709442   3.31526721   1.76784284
C    1.47420380   1.29004931   3.80030509
H    2.10731950   2.13630952   3.96736303
H    1.10708124   1.31209649   2.79549961
H    2.03241598   0.39064706   3.95642634
C    0.28796212   1.33480275   4.78133915
N   -0.59524872   1.36812372   5.51176360
C    1.41519088  -0.01117586  -2.78106140
H    1.02963946  -0.21362803  -3.75843718
H    2.36449220   0.47518123  -2.86581323
H    0.73469175   0.62427064  -2.25377800
C    1.58322279  -1.33435700  -2.01128420
N    1.70833018  -2.31952550  -1.43815008
C   -3.35417691   1.30804862   3.41555285
H   -4.31929253   0.97518048   3.09516118
H   -3.08817016   0.80899647   4.32389554
H   -2.63049027   1.08345127   2.66008427
C   -3.38955058   2.82864694   3.65665333
N   -3.41588788   3.96080151   3.83616359
C   -3.58291545   3.68028093   0.15132681
H   -2.76539096   2.99281480   0.08852396
H   -3.35801354   4.43686605   0.87375133
H   -3.74062071   4.13516664  -0.80423959
C   -4.85625482   2.92610454   0.57726674
N   -5.80431386   2.36458594   0.89439838
C   -4.23579576  -0.55580431  -0.13250747
H   -5.20608918  -0.10811405  -0.18731875
H   -4.05390464  -1.12287347  -1.02146601
H   -3.49432578   0.21007596  -0.04004784
C   -4.16824817  -1.48628466   1.09274501
N   -4.11795592  -2.17906958   2.00500118
C   -0.90953355   3.92649480  -2.36492028
H   -0.39250689   4.84871000  -2.20029124
H   -0.82445753   3.30964108  -1.49477509
H   -1.94226585   4.12660303  -2.56067472
C   -0.28974772   3.19899496  -3.57248374
N    0.17171100   2.65733826  -4.47156963
C   -1.03090516  -3.03761010   0.16412810
H   -0.69635281  -2.03540671   0.33313480
H   -0.19105617  -3.70051615   0.17453658
H   -1.71722800  -3.31932300   0.93516500
C   -1.73337459  -3.12048882  -1.20381481
N   -2.25639501  -3.18219579  -2.22231049
C   -0.24957976   4.23660050   2.45277474
H   -0.69380783   3.30436704   2.17259197
H   -0.85333978   4.70940769   3.19898268
H    0.73022578   4.06110408   2.84530653
C   -0.15144767   5.15041616   1.21709233
N   -0.07838387   5.83079346   0.29707061
C   -1.10041727  -1.62982809   3.46779775
H   -1.29499208  -1.14184857   4.39995483
H   -1.74967810  -2.47407677   3.36482384
H   -1.27477953  -0.94563605   2.66382130
C    0.36502915  -2.10179274   3.43151888
N    1.45612062  -2.45319188   3.40450761
C    0.52387322  -4.72899095  -3.69226341
H   -0.48296562  -4.60705521  -4.03330213
H    0.57679032  -4.50141301  -2.64808567
H    0.83496692  -5.74004640  -3.85315681
C    1.44906671  -3.77686364  -4.47269316
N    2.13791532  -3.06796158  -5.05375857
C   -2.21122632   0.12054956  -3.16282458
H   -2.73711795  -0.76530078  -3.45197391
H   -1.71906161  -0.04612530  -2.22746770
H   -1.48472401   0.36386839  -3.90974454
C   -3.20830680   1.28520392  -3.01787371
N   -3.95067854   2.15234203  -2.90995120
C    4.79834993  -2.92762425  -2.63365099
H    4.51635091  -1.91265055  -2.82128128
H    3.96109095  -3.56935843  -2.81274241
H    5.60255667  -3.20051659  -3.28455834
C    5.25178902  -3.07204941  -1.16902327
N    5.58939504  -3.17958051  -0.07854136
C    2.66954072  -4.54988407   1.04628982
H    2.33851283  -3.54664536   0.87648755
H    3.66698238  -4.53566145   1.43333887
H    2.02009863  -5.02523455   1.75138981
C    2.64511416  -5.33011983  -0.28120236
N    2.62692748  -5.91104081  -1.26958064
C    3.27833001  -0.44386902   1.12480138
H    3.54143625  -1.46309135   1.31679390
H    2.22112921  -0.37014958   0.97718357
H    3.56505949   0.16172983   1.95902877
C    4.00855774   0.04533959  -0.13973110
N    4.55224548   0.40957764  -1.08123301
Cl  -0.64611620   0.92179165   0.41018161
