91
Energy:   -558.20155484
C    2.47599398   3.51201054  -0.71635070
H    3.31341952   3.16210507  -1.28308240
H    2.19327961   4.48465311  -1.06122474
H    1.65482202   2.83721097  -0.83972509
C    2.85949903   3.58694170   0.77324965
N    3.14503596   3.64273136   1.88232482
C    1.18405784   1.63073325   3.83776290
H    1.55312444   2.60895522   4.06529709
H    0.77006984   1.62628983   2.85110527
H    1.98687895   0.92535684   3.89088064
C    0.09324689   1.24443411   4.85388515
N   -0.71891145   0.95681684   5.61043436
C    1.58288452   0.11272508  -2.69303854
H    1.04239888   0.93630119  -2.27530916
H    1.28830994  -0.79213194  -2.20379557
H    1.36836787   0.03893968  -3.73871412
C    3.09349328   0.33590503  -2.49340923
N    4.21821017   0.50207265  -2.34477613
C   -3.07337324   1.25098898   3.06722083
H   -2.49421367   0.55248001   2.50015860
H   -3.07027847   0.96326353   4.09780493
H   -2.64980369   2.22861795   2.96858243
C   -4.52101035   1.26337444   2.54206046
N   -5.59884198   1.27259598   2.15105470
C   -3.98923624   3.35637928  -0.29117566
H   -4.09272023   3.93571776  -1.18479648
H   -4.86432006   2.75668395  -0.15155859
H   -3.13167663   2.72194268  -0.37472686
C   -3.81507461   4.29879403   0.91427950
N   -3.68540335   5.00046465   1.81179567
C   -4.05147564  -0.50468190  -0.55119133
H   -3.26701170   0.22257099  -0.57608577
H   -4.98328286  -0.01754441  -0.35286970
H   -4.10435465  -1.00473473  -1.49567535
C   -3.76330472  -1.53279579   0.55855610
N   -3.54874837  -2.29827331   1.38481350
C   -0.99231364   4.29981178  -2.27015621
H   -0.68460238   5.31823516  -2.15601689
H   -0.91431606   3.79607740  -1.32937614
H   -2.00717038   4.26956407  -2.60786904
C   -0.08680934   3.60257722  -3.30239937
N    0.58737977   3.08345440  -4.07095133
C   -0.48673151  -2.61498103  -0.68880028
H    0.45672626  -3.01805556  -0.99263993
H   -0.82303750  -3.11979365   0.19265397
H   -0.37860348  -1.57065703  -0.48241523
C   -1.51620160  -2.81134848  -1.81717574
N   -2.28268887  -2.95755296  -2.65730256
C   -0.36306058   4.64274380   2.25606596
H   -0.73787524   3.71818093   1.86928739
H   -1.11550848   5.10913642   2.85706443
H    0.50430393   4.45395752   2.85350855
C    0.01099899   5.57387921   1.08787665
N    0.28950335   6.26715185   0.21810660
C   -0.59054447  -1.81230122   2.90599426
H   -0.65714551  -1.13659389   2.07902141
H   -1.19164883  -1.44863216   3.71303667
H   -0.94147304  -2.77782897   2.60682140
C    0.87552961  -1.91858825   3.36526527
N    1.96708840  -1.99772377   3.70721342
C    0.22063775  -6.01142912  -1.91089345
H   -0.18794530  -6.93019851  -2.27671154
H    0.09857798  -5.24746701  -2.65005676
H   -0.28989465  -5.72572748  -1.01499707
C    1.71915442  -6.19981948  -1.60996679
N    2.83486820  -6.34008466  -1.38591322
C   -1.89278650   0.43273808  -3.49292566
H   -2.28656724  -0.49734465  -3.84617208
H   -1.52511713   0.30867396  -2.49576648
H   -1.09361832   0.74712344  -4.13119765
C   -3.00541243   1.49744350  -3.50104414
N   -3.83381301   2.29016508  -3.50708872
C    4.29817334  -3.35363560  -2.75989252
H    4.91672604  -3.74114134  -3.54228119
H    4.36387759  -3.99224009  -1.90387479
H    4.62891184  -2.37041831  -2.49760473
C    2.83733602  -3.29190175  -3.24336253
N    1.74967623  -3.24593809  -3.60332793
C    3.09248050  -4.96761874   1.95533998
H    3.59017436  -4.98979809   1.00839274
H    3.42506339  -5.79088327   2.55243564
H    3.31903421  -4.04947373   2.45592190
C    1.57143193  -5.07225419   1.73840060
N    0.43894214  -5.15016004   1.57687937
C    3.09037028   0.08529676   1.11734340
H    3.37633127  -0.01417382   2.14361436
H    2.14750874   0.58754690   1.05687847
H    3.83113810   0.65308300   0.59410262
C    2.96966387  -1.31159496   0.48037912
N    2.87979247  -2.35164434   0.00613027
Cl  -0.60656637   1.27426915   0.21668438
