91
Energy:   -557.83160761
C    2.13193427   2.84093567  -1.78673157
H    2.73386065   2.28141284  -2.47194614
H    1.84567118   3.76785836  -2.23813701
H    1.25561509   2.27856062  -1.54036175
C    2.93886106   3.12155472  -0.50543453
N    3.53965473   3.33048835   0.44854936
C    2.07512524   2.10325691   3.32119410
H    2.07973519   3.14141506   3.58024349
H    1.33898900   1.92766656   2.56477454
H    3.03965744   1.82349268   2.95199403
C    1.73977032   1.26445397   4.56840968
N    1.49008334   0.63992706   5.49701837
C    0.37622347  -0.41023910  -3.07466942
H   -0.39309843  -0.71162510  -3.75453005
H    1.18345044   0.02997972  -3.62192722
H   -0.01845675   0.30528607  -2.38390872
C    0.88971390  -1.63987815  -2.30271385
N    1.27203086  -2.55540031  -1.72795784
C   -1.87107822   1.36710284   4.20897223
H   -2.92680470   1.30854027   4.37302166
H   -1.36009929   0.82626718   4.97793023
H   -1.63406622   0.94190324   3.25611877
C   -1.42816830   2.84176040   4.23753571
N   -1.09840173   3.93970998   4.25880252
C   -3.30168438   3.83403041   1.19864414
H   -2.59956525   4.45387746   1.71605940
H   -3.85008119   4.42604026   0.49601738
H   -2.77812685   3.05847403   0.67970398
C   -4.27646281   3.20608270   2.21209798
N   -5.00222966   2.73854709   2.96666043
C   -4.20198153  -0.24303250   1.29399444
H   -4.38916655  -0.85366539   0.43551356
H   -3.43499819   0.46735998   1.06600723
H   -5.09815911   0.27454964   1.56579137
C   -3.74663112  -1.13154467   2.46651400
N   -3.40760203  -1.79308237   3.33950811
C   -1.56107778   3.95588893  -2.12458558
H   -1.16489029   4.94058037  -2.25993115
H   -1.12626592   3.51319110  -1.25288817
H   -2.62280751   4.01204264  -2.00427002
C   -1.22899791   3.09500241  -3.35754841
N   -0.98174936   2.45403326  -4.27554528
C   -1.42667718  -2.76440741   0.35106777
H   -1.46159860  -1.72229508   0.59123970
H   -0.40748482  -3.08825318   0.31543151
H   -1.95170767  -3.32065297   1.09928763
C   -2.08764132  -2.99759697  -1.02019043
N   -2.57975917  -3.17121719  -2.04115449
C    0.52604916   4.89120439   1.47304311
H    0.12393160   3.91734884   1.28647670
H   -0.12314418   5.42415257   2.13592570
H    1.49371965   4.79788720   1.92003843
C    0.64642903   5.66008976   0.14416239
N    0.73605731   6.23255987  -0.84524971
C    0.05433053  -1.76466151   3.41324456
H   -0.13454298  -0.98528660   2.70486491
H   -0.02824207  -1.37257304   4.40538744
H   -0.66059190  -2.54940402   3.27921390
C    1.47396637  -2.32125146   3.19774119
N    2.53094978  -2.73565798   3.03728914
C    0.11216883  -5.30700835  -3.16345990
H   -0.45327314  -6.06304047  -3.66703808
H    0.06734608  -4.39603787  -3.72294431
H   -0.29634540  -5.14669757  -2.18759328
C    1.57845157  -5.76073224  -3.03796267
N    2.67016572  -6.09855030  -2.94452427
C   -3.19939134   0.21859185  -2.34290692
H   -3.79939521  -0.66293345  -2.43127366
H   -2.41517064   0.04683190  -1.63552053
H   -2.77450972   0.45780007  -3.29535331
C   -4.07603934   1.39025631  -1.86302082
N   -4.72874363   2.26261376  -1.50572380
C    4.18472155  -3.09107949  -3.64328531
H    4.73939951  -3.98247213  -3.84980820
H    3.81197076  -3.12711942  -2.64095949
H    4.82292534  -2.23968523  -3.75608086
C    3.00434395  -2.98164096  -4.62630714
N    2.12549917  -2.90015900  -5.35821158
C    3.04579907  -4.62231179   0.32153897
H    2.98541407  -3.57014422   0.13661398
H    3.56120789  -5.09751712  -0.48681289
H    3.57779776  -4.79414408   1.23387123
C    1.62522197  -5.20539709   0.43803888
N    0.56753774  -5.63953060   0.52477836
C    2.85968318  -0.38061337   0.55644351
H    2.10323249  -1.13446629   0.49019917
H    2.40453673   0.56336917   0.77240129
H    3.54663605  -0.63230093   1.33724324
C    3.61478007  -0.29201581  -0.78280223
N    4.17698402  -0.22605090  -1.77993156
Cl  -0.59472379   1.10939520   0.46458272
