91
Energy:   -560.08737337
C    2.79044467   3.34213100  -0.50778267
H    3.63254383   2.89309266  -0.99165636
H    2.61716524   4.31338036  -0.92196622
H    1.92513129   2.73086869  -0.65775015
C    3.07324913   3.47029851   1.00059220
N    3.28380991   3.56572505   2.12364584
C    1.03383904   1.70851891   3.80181322
H    1.71919628   0.89655051   3.92788050
H    1.51359489   2.62561683   4.07322582
H    0.72322470   1.75755691   2.77906540
C   -0.19600258   1.48663250   4.70173323
N   -1.11167556   1.32142799   5.37176458
C    1.53342129   0.67051105  -3.33138552
H    1.05069311   0.75728635  -2.38041563
H    2.26762252  -0.10670073  -3.28908315
H    0.80650501   0.43409807  -4.08011827
C    2.21770534   2.00448377  -3.68334025
N    2.72718591   2.99768709  -3.94538653
C   -3.07705267   2.58097656   2.84008252
H   -2.18097640   2.36024686   2.29857914
H   -2.82703624   2.88114588   3.83621968
H   -3.60369573   3.37328776   2.35039981
C   -3.96859865   1.32630484   2.89052683
N   -4.63239516   0.39214472   2.92808491
C   -3.72454735   2.52904585  -1.16129032
H   -4.44230995   2.62750695  -1.94870536
H   -4.10240873   1.86103373  -0.41571693
H   -2.81041951   2.13987777  -1.55855294
C   -3.46332812   3.90888714  -0.52930730
N   -3.26883853   4.93624169  -0.05876721
C   -3.77735656  -1.19479404   0.06091138
H   -3.02299984  -0.44283321   0.16289693
H   -4.11307603  -1.49707515   1.03086893
H   -4.60195682  -0.79971255  -0.49482608
C   -3.19307223  -2.41062083  -0.68204020
N   -2.75804600  -3.31585914  -1.23520142
C   -0.35386043   4.27905170  -2.37771376
H    0.60883902   4.61812461  -2.69886716
H   -0.24758762   3.69492101  -1.48754719
H   -0.98080682   5.12280351  -2.17791336
C   -0.99004840   3.41737830  -3.48423254
N   -1.46371926   2.77582329  -4.30808608
C    0.58934793  -2.41727742  -0.26533097
H    1.42818303  -2.87170675   0.21917892
H   -0.31220404  -2.88955908   0.06490101
H    0.55696182  -1.37617631  -0.02046629
C    0.72622538  -2.58191396  -1.79037503
N    0.82813687  -2.70449335  -2.92583965
C   -0.31446653   4.83330479   1.67040477
H   -0.69556353   4.00647692   1.10824739
H   -1.12523558   5.34706003   2.14327706
H    0.36416315   4.47509111   2.41608822
C    0.42421151   5.79945701   0.72568012
N    0.97419088   6.51880125   0.02228968
C   -1.46450804  -1.48388073   2.86788492
H   -1.86300890  -2.39081327   2.46344627
H   -1.51253498  -0.71215571   2.12826814
H   -2.03677069  -1.19344594   3.72407543
C    0.00179124  -1.70729238   3.28219598
N    1.09351771  -1.87363251   3.59066940
C   -0.69223501  -5.90921289  -1.53118397
H   -1.04409594  -6.85978095  -1.87398774
H   -0.84261055  -5.17623408  -2.29605544
H   -1.23294638  -5.62431596  -0.65291063
C    0.80883288  -6.00608578  -1.20101611
N    1.92644616  -6.07821205  -0.95519113
C   -1.95792828  -0.44960445  -3.39025121
H   -1.50455290   0.02132471  -2.54315224
H   -1.56690538  -0.02005035  -4.28885205
H   -1.74311276  -1.49767824  -3.37308403
C   -3.48240708  -0.23718403  -3.34083486
N   -4.61745083  -0.07902738  -3.30404214
C    4.13238983  -3.52914001  -2.20428500
H    5.08391109  -3.80381272  -2.60933114
H    3.85424248  -2.56305292  -2.57063030
H    3.39754507  -4.24816744  -2.50076741
C    4.22086208  -3.48939777  -0.66734218
N    4.28673368  -3.45980787   0.47698160
C    2.16194165  -5.04492010   2.52480096
H    2.51930016  -4.04290063   2.63948342
H    2.68539994  -5.52057798   1.72190614
H    2.32853201  -5.58891455   3.43101108
C    0.65445561  -5.01954190   2.21104658
N   -0.46793626  -5.00064668   1.97744218
C    3.02745957  -0.14813159   1.31782890
H    1.99272543   0.12274452   1.28864735
H    3.56043991   0.54534312   1.93420856
H    3.12682409  -1.13392641   1.72185162
C    3.60660038  -0.11726820  -0.10879067
N    4.03779703  -0.09428900  -1.17097378
Cl  -0.53505093   1.24155313   0.14223994
