91
Energy:   -557.73524326
C    2.32544221   3.22621875   0.42989132
H    2.22911153   2.52499276  -0.37254415
H    2.57620078   4.18837682   0.03457996
H    1.39897966   3.28943325   0.96146460
C    3.43659698   2.75968917   1.38868495
N    4.26390221   2.41233669   2.10255039
C    1.24902954   1.07601789   3.82093477
H    0.84825585   0.56232387   4.66969804
H    2.29655343   0.87237955   3.74267746
H    0.75322515   0.74045976   2.93409891
C    1.03178000   2.59139586   3.98836316
N    0.87002785   3.71966363   4.11302121
C    0.70594883  -0.50710917  -2.93714281
H    0.03288592  -0.38354329  -2.11457489
H    0.93539623  -1.54527642  -3.05739982
H    0.24861298  -0.13705404  -3.83090017
C    2.00264761   0.27663175  -2.66160255
N    2.96809880   0.86016249  -2.45645030
C   -2.55319487   2.66952809   3.65192288
H   -2.20600014   2.38245681   2.68138381
H   -2.03841776   3.55267774   3.96807207
H   -3.60446096   2.86469899   3.61133938
C   -2.28075219   1.53071860   4.65216681
N   -2.07790622   0.68282316   5.39689388
C   -3.37330464   3.56847869  -1.24764394
H   -2.78102579   4.38600758  -1.60225987
H   -4.17904923   3.38999339  -1.92868561
H   -2.76471045   2.69122273  -1.17740029
C   -3.94199528   3.91132704   0.14183293
N   -4.36541130   4.16659322   1.17636162
C   -4.48712919   0.53057126   1.30922317
H   -4.65383092   0.66961655   2.35697176
H   -5.32144193   0.91579718   0.76111520
H   -3.59826005   1.04989748   1.01748526
C   -4.32572349  -0.97143160   1.00999814
N   -4.20554961  -2.08974100   0.78721150
C    0.20448463   3.41946655  -2.63945411
H    1.19475586   3.08524555  -2.86871249
H   -0.01874453   3.19831570  -1.61663441
H    0.13867912   4.47551659  -2.79859886
C   -0.80477360   2.69886298  -3.55254134
N   -1.55621224   2.16234086  -4.23237629
C   -1.06118081  -2.97476545  -0.30954110
H   -1.08813594  -1.91399133  -0.17194795
H   -0.13417003  -3.35913133   0.06169059
H   -1.87273766  -3.42430488   0.22355258
C   -1.18855317  -3.30128749  -1.80912759
N   -1.28338768  -3.54439800  -2.92563789
C   -0.88563209   5.07742823   1.52892099
H   -0.84968992   4.01487252   1.40815797
H   -1.82301161   5.35548973   1.96354787
H   -0.08831187   5.39069874   2.17004590
C   -0.73578097   5.75563931   0.15444858
N   -0.62421001   6.26059828  -0.86890859
C   -1.38205015  -1.78063133   3.03041826
H   -1.98994823  -2.51899385   2.55064655
H   -1.43056693  -0.86522224   2.47853836
H   -1.73911422  -1.61646162   4.02563314
C    0.07660450  -2.27172855   3.08286002
N    1.16263918  -2.63737276   3.12190529
C    1.71474213  -5.17813939  -3.03815334
H    1.62865916  -5.58481325  -4.02410784
H    1.55643401  -4.12050606  -3.07349985
H    0.98131122  -5.62748692  -2.40170618
C    3.12207736  -5.46831039  -2.48425050
N    4.16990240  -5.68435588  -2.07184466
C   -3.15392750  -0.40301673  -2.47763385
H   -3.31710022  -1.45334063  -2.35477396
H   -2.43559514  -0.06722678  -1.75920304
H   -2.78737944  -0.21205992  -3.46458729
C   -4.48049993   0.35054428  -2.26798799
N   -5.46819340   0.91160471  -2.11189712
C    5.06709635  -2.12896534  -2.70439840
H    4.96372377  -2.91996006  -1.99127734
H    4.88234776  -1.19029476  -2.22516506
H    6.05974565  -2.13626609  -3.10376436
C    4.05310072  -2.33100092  -3.84571101
N    3.29813487  -2.48142560  -4.69547013
C    2.98084992  -5.24931758   1.36483389
H    2.83072413  -4.43876391   2.04701069
H    3.61270576  -4.92841744   0.56316040
H    3.44309143  -6.06650504   1.87809457
C    1.62223410  -5.70162697   0.79810710
N    0.61068286  -6.03839188   0.37615324
C    2.77134411  -0.60896164   0.87255981
H    2.98830355  -0.95600300   1.86119072
H    1.89080587  -0.00139954   0.89304888
H    3.59504036  -0.03104644   0.50864004
C    2.54089425  -1.81568478  -0.05604782
N    2.36931386  -2.71414501  -0.74743841
Cl  -0.74605312   1.16076155   0.40789455
