91
Energy:   -558.17669714
C    2.46938604   2.32333081  -2.27461821
H    2.47037391   1.73803194  -3.17034386
H    1.72657518   1.94634763  -1.60304185
H    3.43174167   2.26649243  -1.81035522
C    2.15198331   3.79010503  -2.62020307
N    1.91566255   4.88218511  -2.87750671
C    1.15541222   2.34292333   3.57195585
H    1.14597242   3.41189757   3.52607400
H    0.65830962   1.94462287   2.71222053
H    2.16731326   1.99569398   3.59163170
C    0.42807223   1.87740433   4.84705138
N   -0.11346544   1.53080426   5.79641796
C    0.78888707  -1.01685115  -2.85620913
H    0.36264261  -0.12159285  -2.45405440
H    0.03869851  -1.55929499  -3.39274515
H    1.58931485  -0.76397994  -3.51973803
C    1.33005447  -1.88858729  -1.70781289
N    1.73297821  -2.53763447  -0.85277968
C   -2.77925628   1.90758816   3.35905609
H   -3.83648861   1.86855172   3.19894321
H   -2.55689179   1.58186140   4.35371946
H   -2.28818388   1.26766188   2.65603309
C   -2.28444697   3.35359254   3.16975452
N   -1.91603894   4.43020852   3.02881089
C   -3.65028535   3.81746239  -0.12849085
H   -3.15218028   4.62476235   0.36654278
H   -4.01159848   4.15050281  -1.07898335
H   -2.96418886   3.00886453  -0.27110996
C   -4.83463165   3.34000030   0.73229588
N   -5.71643130   2.98450807   1.37319073
C   -4.45185552  -0.21815140   0.49593761
H   -4.50892462  -0.91854050  -0.31096908
H   -3.67251389   0.48846473   0.30043987
H   -5.38529542   0.29674188   0.58799173
C   -4.14793180  -0.96817641   1.80616387
N   -3.92164678  -1.52660413   2.78168688
C   -1.33222235   3.52242541  -2.96168548
H   -0.85919011   4.46721411  -3.13054931
H   -1.14827070   3.20610162  -1.95620045
H   -2.38635907   3.61829090  -3.11822517
C   -0.76061816   2.47992926  -3.94049620
N   -0.33503286   1.70374350  -4.66926527
C   -1.50075737  -2.79353609   0.36116456
H   -1.62180653  -1.73258287   0.42917593
H   -0.49294447  -3.05413047   0.60875863
H   -2.17109445  -3.27345063   1.04324178
C   -1.81225054  -3.25473716  -1.07475520
N   -2.04417136  -3.59812231  -2.14386274
C    0.31853768   4.76362896   0.46193824
H    0.26642501   5.18271287  -0.52119610
H    0.03565272   5.50404136   1.18073213
H   -0.34693320   3.92846524   0.52938570
C    1.75846701   4.29683163   0.74531745
N    2.83055985   3.94927980   0.95630615
C   -0.51431616  -1.31925167   3.43540039
H   -0.86320678  -2.32010785   3.28889980
H   -0.70139980  -0.74357750   2.55307503
H   -1.02932603  -0.87969086   4.26392330
C    0.99831804  -1.33994645   3.72368755
N    2.12454297  -1.35535465   3.93833045
C    0.95468983  -5.68805018  -1.55711598
H    0.97071118  -4.97669023  -2.35624708
H    0.39759965  -5.28888528  -0.73540009
H    0.49394300  -6.59297997  -1.89433031
C    2.39655808  -5.98395389  -1.10428382
N    3.47009453  -6.20426765  -0.76712970
C   -2.83787631  -0.30900283  -2.95195205
H   -3.41006683  -1.21267937  -2.98139523
H   -2.18395841  -0.32832535  -2.10524247
H   -2.25898945  -0.22404144  -3.84781514
C   -3.78866865   0.89714709  -2.83883140
N   -4.49657677   1.79518053  -2.75460793
C    4.92020658  -3.40217272  -2.09603988
H    4.40703740  -3.18578091  -1.18240311
H    5.56205569  -2.58369685  -2.34708980
H    5.50507352  -4.28996340  -1.97497187
C    3.89323068  -3.61385405  -3.22391909
N    3.12860044  -3.77146042  -4.06367643
C    3.32423688  -3.76076058   1.89186668
H    3.72085341  -3.58997252   2.87085950
H    3.27292058  -2.83315282   1.36100929
H    3.95997224  -4.43970833   1.36293418
C    1.91227645  -4.36445333   2.00815428
N    0.86100773  -4.81393003   2.09473569
C    2.76340372   0.29403863   0.98605699
H    3.20348765   0.32702669   1.96080726
H    2.00456296  -0.45995891   0.96265859
H    2.32855373   1.24488399   0.75868574
C    3.84803612  -0.03675379  -0.05593578
N    4.65559425  -0.28304378  -0.83174675
Cl  -0.76229549   1.06988809   0.08230794
