91
Energy:   -557.07123672
C    2.15341062   2.82291171  -1.78549664
H    1.66055561   3.65396436  -2.24522006
H    1.44197073   2.04638762  -1.59638631
H    2.91729205   2.45549395  -2.43848089
C    2.78727790   3.27323907  -0.45620452
N    3.25922091   3.60852825   0.53351388
C    1.83628542   1.99764043   3.16304525
H    2.29365306   2.96048325   3.07004673
H    1.21718065   1.81298106   2.31010370
H    2.59574648   1.24620635   3.22190793
C    0.97600826   1.95914126   4.43977585
N    0.33549281   1.93047688   5.39035981
C    0.71847264  -0.88604574  -3.14792911
H    0.22153500  -0.24561548  -2.44950070
H    0.60188897  -1.90501249  -2.84294697
H    0.29114033  -0.75353985  -4.11990050
C    2.21652643  -0.53194498  -3.19317809
N    3.33189558  -0.26830087  -3.22686801
C   -2.51038324   2.40042914   3.50412827
H   -1.80425277   2.19795790   2.72612741
H   -2.00635487   2.84606290   4.33615294
H   -3.25972789   3.07174804   3.13983083
C   -3.17361239   1.08425715   3.95069115
N   -3.66741663   0.10430728   4.28317751
C   -3.50595689   4.06811994  -0.51986375
H   -3.12190943   4.70002800  -1.29323297
H   -4.49858261   3.75849934  -0.77230851
H   -2.87875104   3.20718157  -0.41838951
C   -3.53276675   4.84337598   0.81049684
N   -3.55272791   5.42058935   1.80101077
C   -4.29886381   0.22420820   0.75151424
H   -4.17723750   1.05027597   0.08239597
H   -3.36560229   0.01252373   1.23017040
H   -5.03169461   0.46955529   1.49155675
C   -4.76238601  -1.01316311  -0.03947211
N   -5.10749936  -1.93444230  -0.62839741
C   -1.23243343   3.35231639  -3.26871206
H   -0.68513061   4.26723305  -3.35974679
H   -1.05521259   2.92518765  -2.30380123
H   -2.27774642   3.54890588  -3.38521275
C   -0.77073576   2.36732277  -4.35876840
N   -0.42698086   1.63395025  -5.17036490
C   -1.64398720  -2.77996261   0.05025401
H   -2.58957553  -3.02900419   0.48469755
H   -1.49340243  -1.72207941   0.10598962
H   -0.86327161  -3.27998959   0.58444057
C   -1.62342318  -3.22442562  -1.42406948
N   -1.60811233  -3.55534854  -2.52177033
C    0.00676120   4.74260223   1.45482347
H    1.00816762   4.86239247   1.81222471
H   -0.25337994   3.70474597   1.46377114
H   -0.66496015   5.28413909   2.08761677
C   -0.09333029   5.28452374   0.01680304
N   -0.16785294   5.68800894  -1.05386854
C   -0.56696661  -1.41232258   3.23398402
H   -0.91215784  -2.39895153   3.00527784
H   -0.76831176  -0.76345299   2.40734778
H   -1.07391631  -1.04976129   4.10372559
C    0.94926852  -1.44801888   3.50111095
N    2.07817450  -1.47459641   3.69999909
C    0.90343187  -5.70847250  -1.31745005
H    0.78965249  -4.96604183  -2.07952036
H    0.48183078  -5.34794333  -0.40247993
H    0.39894380  -6.60425473  -1.61403913
C    2.40006788  -6.00665391  -1.11064458
N    3.51438141  -6.22866352  -0.95666850
C   -2.90935926  -0.29022003  -2.97790273
H   -3.48967409  -1.18806605  -2.93309888
H   -2.23108428  -0.26228930  -2.15082231
H   -2.35629636  -0.26832786  -3.89362171
C   -3.84634744   0.93030153  -2.91481339
N   -4.54397774   1.83903531  -2.86784052
C    4.71932929  -3.29411511  -2.24456190
H    3.64943745  -3.30821574  -2.25028927
H    5.09020705  -4.26259292  -2.50799977
H    5.07032029  -2.57298508  -2.95285272
C    5.22022327  -2.91782418  -0.83775333
N    5.59316161  -2.63765848   0.20967960
C    3.33939719  -4.34809982   2.26601305
H    3.48702177  -3.29593671   2.13928518
H    3.80128700  -4.87316260   1.45615752
H    3.77815824  -4.66103877   3.19038150
C    1.83066148  -4.65633267   2.28359345
N    0.70733916  -4.88582604   2.29668286
C    2.79918506  -0.30582480   0.46811628
H    3.29285404  -0.44877084   1.40660312
H    2.02497842   0.42424549   0.57992213
H    3.50693782   0.03335931  -0.25916584
C    2.18431359  -1.63901874   0.00322167
N    1.72651384  -2.63164222  -0.34291350
Cl  -0.80420711   1.17111218   0.08680027
