91
Energy:   -558.47264410
C    2.09586781   2.95948697  -1.62043725
H    2.80978169   2.63218143  -2.34714093
H    1.64700016   3.87385535  -1.94807637
H    1.33874368   2.21262766  -1.50269475
C    2.80409343   3.18947487  -0.27243056
N    3.33139960   3.36071131   0.73122170
C    1.87156088   1.63731031   3.25480330
H    2.46237616   2.52931888   3.26738109
H    1.28029808   1.61366243   2.36331680
H    2.51516490   0.78285020   3.27869610
C    0.94589465   1.61730384   4.48538925
N    0.25669407   1.60240812   5.40161642
C    0.67863054  -0.54456657  -3.24929759
H    0.24491363   0.01814608  -2.44920742
H    0.54188067  -1.58972658  -3.06534347
H    0.20327179  -0.27936249  -4.17049245
C    2.18384018  -0.23189809  -3.33975399
N    3.30453718   0.00089780  -3.40710289
C   -2.64122621   1.91992020   3.64273119
H   -2.10386969   1.49757143   2.81946351
H   -2.44549398   1.34957854   4.52664203
H   -2.32558470   2.93111845   3.79355434
C   -4.15061652   1.89328272   3.33837723
N   -5.27442622   1.87344991   3.11177187
C   -3.93813358   3.60756156   0.18169608
H   -4.15765641   4.14487213  -0.71719616
H   -4.80625649   3.06586404   0.49446676
H   -3.13622394   2.92259310   0.00098016
C   -3.52688644   4.59971980   1.28537076
N   -3.22069425   5.33842671   2.10710674
C   -4.48514292  -0.21726207   0.44382093
H   -3.64266962   0.42380246   0.28833723
H   -5.33649978   0.37182205   0.71413647
H   -4.69508926  -0.75515513  -0.45700796
C   -4.17019089  -1.21359444   1.57507114
N   -3.93569479  -1.95540917   2.41733835
C   -1.47538990   3.83624082  -2.58138136
H   -1.06483965   4.82166681  -2.65407443
H   -1.18758848   3.39786014  -1.64870144
H   -2.54265469   3.88956731  -2.63616481
C   -0.94442981   2.97215266  -3.74027438
N   -0.54910589   2.32879976  -4.60312292
C   -1.24622334  -2.85425972   0.16042590
H   -1.13230214  -1.81043852   0.36623996
H   -0.34455797  -3.36921074   0.41873599
H   -2.05802770  -3.24507737   0.73760382
C   -1.53951792  -3.05295255  -1.33827336
N   -1.75788907  -3.20088838  -2.45412307
C    0.08108692   4.55087542   1.86522715
H   -0.39153736   3.60301033   1.71331192
H   -0.47797979   5.11768579   2.58011841
H    1.07568608   4.39919765   2.22945985
C    0.13447151   5.31761335   0.53073735
N    0.17421877   5.88848459  -0.46285097
C   -0.71811107  -1.40655361   3.38322144
H   -1.30138896  -2.30028362   3.30619042
H   -0.96369519  -0.74961434   2.57512595
H   -0.92917878  -0.92197763   4.31356312
C    0.77861297  -1.76317978   3.31814529
N    1.89299206  -2.02870418   3.26969313
C    0.97648567  -5.47971734  -2.17647795
H    0.52118518  -6.23752526  -2.77924557
H    0.82991065  -4.52382381  -2.63438887
H    0.53022266  -5.48152540  -1.20398366
C    2.48502432  -5.76221081  -2.04955834
N    3.60819991  -5.97254004  -1.95506092
C   -2.89057507   0.00404220  -2.98392753
H   -3.40297667  -0.93261911  -3.05471146
H   -2.24170465  -0.00777156  -2.13320624
H   -2.31319687   0.16264215  -3.87070798
C   -3.91798296   1.14087396  -2.83015308
N   -4.68293483   1.98729688  -2.71566101
C    4.97061342  -2.93298051  -2.72840957
H    5.37599757  -3.85298559  -3.09468066
H    5.30394074  -2.12536942  -3.34611202
H    3.90188598  -2.98064018  -2.74960666
C    5.44559054  -2.70262244  -1.28171268
N    5.79923261  -2.53111040  -0.20458109
C    3.55438895  -4.58016497   1.53379401
H    4.02754056  -4.78831671   0.59693724
H    4.09099168  -5.06799822   2.32054386
H    3.55196146  -3.52399670   1.70526345
C    2.10458874  -5.09856059   1.50304788
N    1.02514658  -5.48452969   1.48015599
C    2.85977748  -0.38397861   0.37091182
H    3.32374910  -0.63570569   1.30164486
H    2.03809831   0.27773575   0.54945185
H    3.57348088   0.09704979  -0.26480686
C    2.34740868  -1.66637739  -0.31065371
N    1.96592681  -2.62118157  -0.81811023
Cl  -0.79822144   1.10175328   0.19806450
