36
Energy:   -475.38186727
O   -0.23027415   0.92068871   3.01274652
H   -0.32013642   0.11425836   2.50498013
H   -0.81039336   1.54478602   2.57663173
O   -0.25112390  -3.56461008   0.01600676
H   -0.14140070  -4.45158238   0.35874981
H   -1.02950656  -3.61625573  -0.53868685
O    0.93855081   1.89615167  -1.52347826
H    0.98154080   2.57557359  -0.85059672
H    1.17438819   2.34641296  -2.33457465
O   -2.35293155  -3.49384549  -1.69083984
H   -2.06712455  -2.67699281  -2.09986050
H   -2.98586341  -3.86224404  -2.30720955
O    1.18581664  -2.00862131  -1.79824053
H    1.73161675  -1.44897720  -1.24585248
H    0.82858429  -2.66311923  -1.19803275
O    2.23325327   1.64709481   2.22059425
H    2.80509821   1.79814549   2.97319567
H    1.39735499   1.38133501   2.60384045
O    0.93077223   3.50681269   0.61816867
H    1.46957791   2.99758802   1.22365237
H    0.03295798   3.36445605   0.91799532
O   -0.20942802  -0.99758754   1.02872911
H    0.65805054  -0.75416748   0.70552721
H   -0.29998237  -1.92257935   0.79977079
O    2.12520430  -0.04343182   0.00332553
H    1.82829072   0.61646388  -0.62326193
H    2.38553641   0.45878310   0.77549081
O   -1.30537968  -1.20888215  -2.66620739
H   -0.38476243  -1.42785482  -2.52217030
H   -1.47693291  -0.48492935  -2.06396684
O   -1.40419544   0.73320722  -0.70546697
H   -0.62162164   1.13034855  -1.08768270
H   -1.06713416   0.06592507  -0.10767430
O   -1.61537486   2.59007653   1.27302022
H   -1.67262454   1.96196219   0.55300169
H   -2.48491586   2.98814117   1.31394499
