36
Energy:   -475.51318000
O   -2.59207861  -1.92341009   0.91856434
H   -2.66750362  -1.00407691   1.17423877
H   -3.23291696  -2.37792447   1.46535016
O    2.84920050  -1.39324542   1.24904762
H    1.95564303  -1.72750145   1.17120285
H    3.06016113  -1.06628399   0.37450563
O    0.32778933  -0.98912873  -1.96869967
H    0.08061493  -0.10018800  -2.22349573
H    1.28300329  -0.96561365  -1.91173319
O    2.93206689  -0.23177062  -1.27431614
H    3.62809574   0.02224958  -1.88032721
H    2.54054189   0.59672261  -0.99765935
O    2.52768078   0.64886618   3.00506549
H    2.75324312  -0.07973456   2.42671054
H    2.91263461   0.41327226   3.84918509
O    1.60275595   2.01570662  -0.38192435
H    1.09539033   1.65048068   0.34293564
H    1.99251322   2.81338399  -0.02410883
O    0.13490821  -1.67049055   0.66834080
H    0.17145680  -1.50646384  -0.27399209
H   -0.77040447  -1.93548763   0.83087493
O   -2.78190250   1.37249344  -1.25860007
H   -3.53869248   1.72204322  -1.72904213
H   -2.75268749   0.44783712  -1.50434188
O   -2.49751148  -1.25578753  -1.77440259
H   -1.57819441  -1.39523091  -2.00165468
H   -2.59212585  -1.64730400  -0.90607384
O    0.19440496   0.87040673   1.61747720
H    0.16676938  -0.03689277   1.31370799
H    0.90895337   0.88867548   2.25412362
O   -2.56980464   0.72277539   1.41961713
H   -1.66101735   0.93365900   1.63377972
H   -2.70177709   1.08988704   0.54552094
O   -0.27824958   1.60911911  -2.37839769
H    0.32443365   1.92518599  -1.70526583
H   -1.14508122   1.68634260  -1.97981107
