36
Energy:   -475.31521620
O    1.15205071  -1.06090455   2.44014123
H    1.95504447  -0.85561163   1.96130129
H    0.60605293  -1.52479383   1.80537748
O   -1.85321969   1.77191149   1.43065812
H   -2.44515962   2.41819453   1.81557006
H   -1.20956900   1.59709085   2.11723178
O    1.86609063   2.36897452   1.18613510
H    1.26034733   2.45590986   0.45009900
H    1.30712841   2.15405916   1.93286428
O   -0.16495715   1.96339787  -0.74249729
H   -0.68850371   1.73641758  -1.51100936
H   -0.78739847   1.94949422  -0.01544479
O   -0.33592662  -1.92240486   0.26627815
H   -0.52884743  -2.66503124  -0.30601502
H    0.26705111  -1.37887416  -0.24089448
O    3.19775118   0.04672524   0.88804864
H    2.84554150   0.92770636   1.01474695
H    4.14767353   0.16340035   0.90436721
O    1.35089455  -0.30132713  -1.11621227
H    0.89509245   0.53286987  -1.00399971
H    2.10984123  -0.24004292  -0.53614673
O   -0.12115080  -1.35413841  -3.22883047
H    0.59262869  -1.05616647  -2.66494802
H   -0.78432068  -0.66736826  -3.15966169
O   -2.55525602  -0.37105936  -0.18407458
H   -2.43761796   0.31312758   0.47492570
H   -1.87690988  -1.01609583   0.01594119
O   -1.87224482   0.69438498  -2.55843646
H   -2.19316911   0.27057949  -1.76242871
H   -2.66241752   0.88614182  -3.06349910
O   -0.80097517  -3.59910495  -1.85119664
H   -0.60283257  -2.85986556  -2.42608488
H   -0.72521159  -4.36877251  -2.41520335
O    0.20615444   1.33985960   3.16910132
H    0.50024996   0.45170661   2.96680467
H    0.34830113   1.43096801   4.11129314
