36
Energy:   -474.75138211
O    0.74776691   0.15828883  -3.00495987
H   -0.15793031   0.41739195  -2.83522488
H    0.89973728   0.40121521  -3.91826356
O    1.04968750  -2.85271680   0.29150630
H    0.16477762  -2.74141856   0.63903913
H    1.32270227  -3.71596680   0.60214146
O    2.35016353   2.34165005   1.88495858
H    2.49924043   1.41483657   2.07210745
H    2.29802614   2.38835198   0.93032123
O   -1.07669430   1.99335335   0.12317387
H   -1.06431373   1.26599978   0.74529553
H   -1.07862635   2.77802656   0.67136733
O   -2.38762928  -1.75737006  -1.40091457
H   -1.55237331  -2.05956559  -1.75764581
H   -3.04311208  -2.31632082  -1.81822523
O    1.83028959  -0.40722180   1.27893742
H    1.79611220   0.14825516   0.50015048
H    1.71472021  -1.29664992   0.94458254
O   -1.44358332  -2.30935754   1.13864886
H   -1.37071233  -1.47431059   1.60083741
H   -1.91251248  -2.09688387   0.33168403
O    1.47906227   1.46842350  -0.69218292
H    1.39769920   1.05537429  -1.55183532
H    0.58766392   1.73694828  -0.46961771
O   -1.76566801   0.78283905  -2.27664808
H   -1.68983514   1.31256381  -1.48300276
H   -2.12976653  -0.04966299  -1.97564231
O    0.07235809  -2.41918687  -2.25712403
H    0.44404676  -1.59110882  -2.56104199
H    0.54418214  -2.61092367  -1.44666064
O   -0.13962020   2.81144120   2.85013023
H    0.76714084   2.73269685   2.55379327
H   -0.09159704   3.37466347   3.62259790
O   -0.68549393   0.18331824   2.11315179
H    0.21919104  -0.06342755   1.92107506
H   -0.61183030   1.00002474   2.60690883
