36
Energy:   -476.25195150
O    1.12206324  -0.90661835   3.16028216
H    2.00745620  -0.95731362   2.80008618
H    0.57264741  -1.34256329   2.50887897
O   -1.78443340   0.85581029   0.89534434
H   -1.34265402   1.13633696   1.69682274
H   -1.58072857   1.53950466   0.25714516
O    1.47168351   2.10257568   0.42176984
H    1.04969744   1.98054800   1.27222199
H    2.23939584   2.64239172   0.61004693
O   -0.89731648   2.65214624  -0.91177902
H    0.00297138   2.57110141  -0.59690546
H   -0.91323639   2.14831051  -1.72549148
O   -0.37522380  -1.48491362   0.88211336
H   -0.93275934  -0.70687024   0.88798358
H   -0.77148652  -2.05917400   0.22680221
O    3.44370803  -0.94647534   1.69175446
H    2.97192768  -0.81396769   0.86950335
H    4.11913476  -1.59075087   1.47976479
O    1.78686780  -0.48836916  -0.41939895
H    1.04636786  -0.88222992   0.04186605
H    1.71925866   0.44692257  -0.22733062
O    0.42750770  -1.26504358  -2.69484321
H    1.05140217  -0.97991957  -2.02724165
H   -0.04860312  -0.46973434  -2.93366021
O   -2.95567268  -0.35472671  -1.39712509
H   -2.81905728   0.00834280  -0.52205446
H   -2.58986349  -1.23802696  -1.35026205
O   -1.22750556   0.92025425  -3.02361144
H   -1.91271756   0.49437289  -2.50849840
H   -1.67602059   1.22917208  -3.81078098
O   -1.43453389  -2.67748583  -1.35838338
H   -1.56137969  -3.54405110  -1.74465612
H   -0.76213180  -2.26809907  -1.90291048
O    0.15091935   1.56396596   2.79018206
H    0.51426247   0.70499903   3.00556413
H    0.03654653   1.99534855   3.63697587
