36
Energy:   -488.38285925
O    2.20734402  -1.36594719   2.22447239
H    2.56181530  -2.13940290   2.66304761
H    1.54095922  -1.71122096   1.63037714
O   -1.18754118   0.11533599   1.48289263
H   -0.65454045   0.41403189   2.21972560
H   -0.72974539  -0.65806837   1.15349839
O    1.87317654   2.59210111   1.20776075
H    1.12688524   2.51287975   0.61361842
H    2.06487839   3.52967696   1.22858790
O   -0.28481800   1.88749391  -0.36131393
H   -0.95613400   1.92285396  -1.04272155
H   -0.66695497   1.33904993   0.32382283
O    0.26083334  -1.89470089   0.34114441
H    0.67562001  -1.33644496  -0.31652890
H   -0.44047111  -2.34251852  -0.13199752
O    3.32523412   0.37018921   0.35579231
H    3.11172889  -0.25201390   1.05114162
H    2.99075813   1.20897307   0.67328136
O    1.29257511  -0.08377468  -1.39454085
H    0.77730250   0.67235885  -1.11349269
H    2.14185822   0.03289155  -0.96870165
O   -0.81314687  -0.85426198  -3.05670928
H    0.05511532  -0.63859865  -2.71635366
H   -1.32133973  -0.05094352  -2.94423116
O   -3.23729995  -0.36285467  -0.35023203
H   -2.74906524  -0.17090558   0.45040164
H   -2.92067116  -1.22373614  -0.62383969
O   -2.28428154   1.34707232  -2.19886818
H   -2.72181309   0.78280319  -1.56137439
H   -2.99635993   1.82119330  -2.62826952
O   -1.86418085  -2.59364120  -1.29051619
H   -2.18758192  -3.37891663  -1.73208848
H   -1.50549494  -2.05306523  -1.99433001
O    0.83069547   0.87862422   3.13986837
H    1.37055441   0.10155554   2.99513261
H    1.24934855   1.56247167   2.61707384
