36
Energy:   -476.49375101
O   -1.50943135   0.54750545   1.83346904
H   -1.71193361   0.50018218   0.89913227
H   -0.72738081   1.09730082   1.88198542
O   -1.68311827   0.47382167  -0.90431330
H   -0.80802200   0.85808121  -0.95706713
H   -1.57345622  -0.41874942  -1.23222020
O   -0.28073853   3.83222234  -2.04772827
H   -1.19174591   3.53870327  -2.05972650
H   -0.16194714   4.28038225  -2.88514880
O   -2.77359937   2.72490103  -2.02202983
H   -3.56759456   2.93550310  -1.53065395
H   -2.50510122   1.86872283  -1.68871396
O    0.00971956  -3.22097658   0.48971111
H   -0.27807177  -2.82684974   1.31316240
H    0.94651403  -3.02922290   0.44636950
O    0.79319352   1.56848345  -0.98452328
H    0.94468911   1.74572772  -0.05615622
H    0.54893449   2.41699964  -1.35410363
O   -0.61436452  -1.80544282   2.77900849
H   -1.01422567  -0.99480083   2.46404425
H   -1.12130000  -2.03643863   3.55739734
O    0.98980735   1.75711562   1.75278992
H    1.39225468   0.92528807   2.00245156
H    1.40754770   2.40551051   2.31963108
O   -0.93549214  -2.04343555  -1.73826391
H   -1.30615125  -2.72451814  -2.29948595
H   -0.67085802  -2.50557737  -0.94288628
O    1.89673394  -0.68537376   2.42705238
H    1.09436878  -1.14126662   2.68122496
H    2.25195888  -1.20766228   1.70784324
O    1.60714345  -0.91551554  -1.87978412
H    1.43935404   0.00213911  -1.66533479
H    0.73720043  -1.29859010  -1.99241128
O    2.58818160  -2.23687345   0.24541942
H    2.32045950  -1.74254950  -0.52930669
H    3.41839867  -2.64279865  -0.00397226
