36
Energy:   -475.82075520
O    1.37987088   2.71958203  -0.03057364
H    1.14502693   2.26588106  -0.84003989
H    2.01189022   2.13999499   0.39470541
O   -1.58270292  -3.44326457   0.56655673
H   -1.78117728  -4.37345818   0.45894803
H   -1.27139162  -3.16316088  -0.29417497
O   -0.61340037   2.81981513   1.78009521
H    0.06783270   2.86072561   1.10891738
H   -0.78088363   3.73425253   2.00809840
O    1.23701028  -0.78410397  -0.15660276
H    1.02803250  -0.11761347  -0.81108771
H    1.93416487  -0.39306952   0.36998948
O   -2.05356536   0.03422543  -1.68991665
H   -2.19346043   0.30544294  -0.78266681
H   -2.88010973   0.23281899  -2.12993579
O    2.80410777   0.82025982   1.44684382
H    2.14575195   0.83274255   2.14156941
H    3.64160809   0.85150499   1.90928171
O    0.50410196   1.00678341  -2.05766900
H    0.78318494   0.45468402  -2.78810092
H   -0.43872860   0.85621807  -1.98960676
O   -2.24438916   0.77747618   0.87589176
H   -1.79281668   1.55979204   1.19258726
H   -1.79699401   0.05036095   1.30875766
O    0.88673873  -1.13344395  -3.75672220
H    1.37066074  -1.75560277  -4.29983336
H    0.37850599  -1.68151296  -3.15876594
O   -0.60649574  -1.19382977   1.82717705
H   -1.01348534  -2.03142342   1.60575395
H    0.06729104  -1.07023140   1.15862140
O   -0.52332348  -2.27384968  -1.68020109
H    0.18600201  -1.94115205  -1.13029066
H   -1.15463930  -1.55536421  -1.71829051
O    0.74453018   0.84287864   3.17727166
H    0.22065051   1.57504166   2.85212669
H    0.22746991   0.06546728   2.96629274
