36
Energy:   -477.70072136
O   -1.20818505   2.82167778  -0.70495951
H   -1.09526124   2.18750282  -1.41298647
H   -1.49018104   3.62405138  -1.14417097
O    2.71822185   0.92933987   1.29080240
H    3.45821660   1.43581586   1.62564813
H    1.99314576   1.55361382   1.26289991
O    1.09350645  -0.89816743   2.59098237
H    1.06822942  -1.63938958   1.98585211
H    1.75619637  -0.31225135   2.22522798
O    1.05575510  -0.81756172  -2.85226850
H    1.59209468  -0.98960749  -3.62620128
H    1.68082397  -0.79289241  -2.12776026
O    0.55905293   2.53744580   1.40156684
H   -0.01151442   2.04291203   1.98988742
H    0.01597904   2.71488060   0.63356977
O    2.69457000  -0.96864843  -0.71878776
H    2.77489860  -0.25455732  -0.08644842
H    2.29167442  -1.68259578  -0.22463578
O   -0.98988557   0.78510789   2.88482355
H   -1.20530951   0.79900048   3.81736382
H   -0.30910303   0.11689522   2.80571093
O   -1.09447229   0.89974058  -2.59003423
H   -1.72978949   0.26891218  -2.25142026
H   -0.30311269   0.38391161  -2.74463788
O   -0.55734827  -2.53828674  -1.40073373
H   -0.03531409  -2.01983082  -2.01303726
H   -1.37271119  -2.04626972  -1.30411894
O   -2.75536521  -0.86839133  -1.25395708
H   -2.76671676  -0.28427110  -0.49573116
H   -3.67634495  -1.07789997  -1.40930929
O   -2.69531428   0.96791284   0.71699745
H   -2.18328224   0.84141699   1.51578018
H   -2.27125758   1.70285371   0.27397411
O    1.17945906  -2.85017169   0.63556408
H    1.32153894  -3.79135153   0.73668611
H    0.49710861  -2.78084564  -0.03213616
