36
Energy:   -476.00126017
O    2.17768722  -1.79580418   1.29860090
H    1.71136756  -1.85555535   0.46480979
H    2.66835624  -0.97595625   1.24093690
O   -2.26038364   1.62134781  -0.30550817
H   -1.52403594   2.05274012   0.12799453
H   -3.00088429   2.21131613  -0.16469613
O    1.49361175   1.10518387  -0.98052419
H    1.17631311   0.20211519  -0.97600937
H    2.24620669   1.09808426  -0.38910022
O   -0.00404648   2.60582719   0.75638632
H    0.56005608   2.18443944   0.10796322
H    0.35555802   2.33333372   1.60058047
O    0.04311476  -0.88217927   2.74194742
H   -0.67531201  -0.96758090   2.11520873
H    0.76990561  -1.35823238   2.34022570
O    3.19313439   0.80338163   1.20532387
H    2.58711681   1.10985102   1.87989860
H    4.05623664   1.07693605   1.51589484
O    0.50218159  -1.42261044  -0.88096056
H   -0.26790712  -1.28111793  -0.33034718
H    0.14516608  -1.61626866  -1.74771789
O   -0.98002617  -1.48091158  -3.23590065
H   -0.78033497  -1.58953332  -4.16571600
H   -0.98412612  -0.53335681  -3.10042001
O   -1.73102004  -0.92781998   0.58616405
H   -2.00392438  -0.04601849   0.33282394
H   -2.24617927  -1.50862494   0.02624583
O   -0.81888118   1.14393850  -2.62916900
H    0.04880223   1.34314265  -2.27749436
H   -1.42175582   1.36181172  -1.91832072
O   -2.83747527  -2.42970528  -1.41190428
H   -2.27721034  -2.14135849  -2.13245351
H   -3.02220464  -3.34893318  -1.60458791
O    1.21623744   1.51222373   2.98592748
H    0.76062007   0.67081462   2.95993960
H    1.12723842   1.80542068   3.89276074
