36
Energy:   -474.95168357
O    1.49963021  -1.19653324   2.11078131
H    2.08367847  -1.52810664   2.79282131
H    2.05237984  -0.62385641   1.57904739
O   -0.66295291   2.68859892   1.25006918
H   -0.97074416   3.36624992   1.85197077
H   -0.62278153   1.89449566   1.78300267
O    1.48753944   2.48593712  -0.42991020
H    1.77271150   3.38231671  -0.60714555
H    0.72933214   2.58473791   0.14593000
O    2.51343118  -1.23995492  -1.79653351
H    3.07530967  -1.49542544  -2.52814764
H    1.95839246  -0.54548283  -2.15131850
O    0.78084389  -2.61988162  -0.14291875
H    1.39666546  -2.23609979  -0.76718404
H    1.00923863  -2.21997812   0.69621466
O    2.96901932   0.31296894   0.44560141
H    2.52961653   1.12239152   0.18484844
H    2.96447146  -0.22774490  -0.34423384
O   -2.73936105   1.53809722  -0.17435720
H   -2.87652009   0.77008572   0.38023958
H   -2.04155361   2.02731472   0.26149009
O    0.98579892   0.81100491  -2.58037642
H    0.05599101   0.58689421  -2.54212064
H    1.10350873   1.46522142  -1.89162609
O   -2.79889761  -0.81549906   1.29380769
H   -3.58807250  -1.24939785   1.61810180
H   -2.48181411  -1.38605073   0.59369292
O   -1.60469333   0.08387020  -2.19205948
H   -1.68980175  -0.77423396  -1.77655298
H   -2.06191099   0.68277085  -1.60171900
O   -1.80682782  -2.29772670  -0.78143283
H   -2.04813333  -3.06164156  -1.30530074
H   -0.88780584  -2.44193524  -0.55596811
O   -0.69044126   0.38330508   2.62338651
H    0.06623503  -0.19088099   2.50513596
H   -1.42494446  -0.10910531   2.25695929
