36
Energy:   -476.91516161
O   -1.31596437  -2.46522789   0.23779777
H   -1.57303730  -3.38093053   0.34565896
H   -0.72650314  -2.29335342   0.97211818
O   -3.10952419   1.27887907  -1.36393748
H   -3.11547656   0.72262227  -0.58497998
H   -3.84306179   1.88016584  -1.23506291
O    2.20697207   1.60523235   2.27536252
H    2.75848053   2.23197302   2.74362141
H    2.28401467   1.85823063   1.35542330
O   -1.98721574  -0.33468785  -3.31334619
H   -2.47565767   0.22781350  -2.71230663
H   -2.41665303  -0.21143324  -4.15988252
O   -0.48052689   0.93336350   1.93392098
H    0.35563744   1.25373879   2.27218231
H   -0.46669576   1.16161931   1.00443734
O    2.85634273  -1.02244876   1.63148041
H    2.74157289  -0.12863900   1.95422465
H    2.89070657  -0.93120761   0.67925878
O    2.28295768   2.04959448  -0.37839052
H    2.58840786   1.20869846  -0.71872260
H    1.35304860   2.07620468  -0.60376321
O    2.72105207  -0.59653700  -1.11173044
H    3.28253985  -1.03414499  -1.75162306
H    1.83109736  -0.83775610  -1.36868533
O    0.28464280  -1.69145116   2.22362984
H    1.22921019  -1.62169497   2.08521608
H   -0.02000673  -0.78480339   2.26118418
O   -0.40252099   1.44950532  -0.74230816
H   -0.20968624   0.57628135  -1.08366793
H   -1.30430297   1.61978935  -1.01438252
O    0.07427458  -1.07127358  -1.67837895
H   -0.38240819  -1.63840418  -1.05706133
H   -0.56059984  -0.92273548  -2.37916619
O   -2.84035135  -0.22800797   0.85562176
H   -2.23003946   0.18369455   1.46738338
H   -2.43915903  -1.07185317   0.64777120
