36
Energy:   -475.73528546
O    0.76163799  -0.45961163   3.09494806
H    1.63681870  -0.35487352   2.72169145
H    0.30822061  -1.04067256   2.48420038
O   -1.57065288   0.85446019   0.52660198
H   -1.40839429   1.31632487   1.34914985
H   -1.23695121  -0.02981661   0.67802721
O    1.69434736   2.48323767   1.16802945
H    1.28121179   2.36683795   0.31245832
H    0.96784196   2.45809419   1.79075696
O    0.30645963   1.81961763  -1.15598901
H    0.01983054   2.65780039  -1.51865316
H   -0.42127796   1.53614615  -0.60256896
O   -0.41188064  -1.57259862   0.82856262
H    0.35417441  -1.36813084   0.29229363
H   -0.94614187  -2.14325173   0.27615712
O    3.02828906   0.18546792   1.60605898
H    2.66874114   1.06511420   1.49125672
H    3.94224955   0.32987837   1.85111751
O    1.68339834  -0.65313441  -0.65987546
H    1.39809668   0.21106039  -0.95652703
H    2.30043649  -0.47187461   0.04909609
O    0.31194692  -2.12145279  -2.64575317
H    1.00670614  -1.80552719  -2.06805732
H   -0.03651118  -1.33041086  -3.05692400
O   -2.93300504  -0.27133340  -1.66673628
H   -2.72309706   0.18205033  -0.85027215
H   -2.72228141  -1.18871478  -1.49284320
O   -0.78174641   0.30415018  -3.24454859
H   -0.32515334   0.87001709  -2.62201404
H   -1.63736651   0.14860007  -2.84461077
O   -1.84504835  -2.78996159  -1.18354715
H   -2.18860900  -3.64603912  -1.43914290
H   -1.09517183  -2.64993686  -1.76174273
O   -0.45718821   1.92551242   2.82489845
H   -0.05663973   1.08130755   3.03253007
H   -0.75673784   2.26310461   3.66901538
