36
Energy:   -476.31325133
O    0.73602253   1.77755563   2.18550817
H   -0.21549901   1.85084308   2.11156513
H    0.90487193   0.83536577   2.18552468
O   -0.66918908   0.86664918  -2.73682598
H   -0.89849248   1.56153667  -2.11974967
H   -0.99749935   1.17708517  -3.58067058
O   -1.07928499   2.78737540  -0.89355017
H   -0.17773657   2.99784040  -0.65034903
H   -1.49093677   2.51253528  -0.07425928
O    2.39852696  -1.47427102  -0.52155937
H    3.30359769  -1.72164185  -0.71099668
H    2.26073580  -0.66847168  -1.01948796
O   -1.71502248  -0.85650132   1.13637921
H   -1.82450135  -0.99342808   0.19537056
H   -0.76922439  -0.77408574   1.25846730
O    1.55940118   2.96376898  -0.08373266
H    1.34984830   2.56191797   0.75937778
H    2.10826200   3.71578439   0.13865548
O   -1.76843817  -1.33468660  -1.49830513
H   -1.39341486  -0.61836242  -2.01062244
H   -1.09322804  -2.01313163  -1.50426098
O    0.22996620  -3.12785644  -0.99852348
H    1.03836266  -2.62335377  -0.90794719
H   -0.00833600  -3.36236840  -0.10161319
O    0.95188078  -0.96883206   1.74802552
H    0.72482694  -1.85345186   2.03460222
H    1.53141839  -1.10095826   0.99775179
O    1.92690657   0.83001546  -1.81047774
H    1.07298879   0.81310134  -2.24264691
H    1.89679774   1.60522422  -1.24978470
O   -0.64946313  -3.33711309   1.64591056
H   -1.26070334  -2.61121914   1.52063000
H   -1.18996772  -4.04992853   1.98647006
O   -1.97206952   1.80181255   1.54290455
H   -2.02001334   0.85617076   1.40256622
H   -2.77367406   2.01444155   2.02086995
