36
Energy:   -475.97287139
O    1.75193581   0.67328906  -0.36688783
H    1.78448527   1.58423943  -0.65902102
H    1.14003846   0.67902811   0.36916961
O   -0.06883695   0.55159052   1.64408334
H    0.37140713   0.05506090   2.33392052
H   -0.71921851  -0.05475654   1.28971218
O    1.18166601  -1.42874475   3.15773208
H    1.92246066  -1.47443525   3.76218847
H    1.54668729  -1.68550021   2.31093343
O   -0.20744986   2.24455864  -3.39137771
H   -0.00328510   1.31750709  -3.26839800
H   -1.15690443   2.29774664  -3.28211242
O    0.01751673  -2.64317780  -1.03776161
H   -0.10927187  -3.39119784  -1.62139036
H    0.07610590  -1.88869193  -1.62389319
O    1.20032758   3.22163004  -1.30530948
H    0.73894529   2.96024861  -2.10220217
H    1.63179102   4.04416026  -1.53664296
O    2.09720502  -1.91722629   0.66398793
H    1.44443796  -2.32766549   0.09683126
H    2.26872536  -1.06799070   0.25703397
O   -1.06797699   2.74362355   0.23519519
H   -0.28094068   3.04585996  -0.21808050
H   -0.74129473   2.16059615   0.92046126
O   -2.13777786   0.75223304  -1.28485329
H   -1.89312879   1.51822612  -0.76559104
H   -2.32113479   0.07178477  -0.63708618
O   -1.76874073  -1.30737653   0.59100919
H   -1.22496930  -1.88267494   0.05288633
H   -1.83036604  -1.75542666   1.43462359
O    0.12175045  -0.27212821  -2.32572212
H   -0.71677525   0.05044032  -1.99548577
H    0.76777019   0.05326533  -1.69881752
O   -1.40261711  -2.41662276   3.06087294
H   -1.76755262  -2.46412110   3.94450059
H   -0.49048030  -2.15746401   3.19154445
