36
Energy:   -478.10164537
O   -0.64852481   1.79538729  -2.10634297
H    0.25632657   1.48398016  -2.08395021
H   -0.65108368   2.47732081  -2.77805122
O    1.92785346   0.89396670  -1.96254601
H    2.69821678   1.05855118  -2.50631450
H    2.21780587   1.08683380  -1.07093975
O    0.44421963  -0.80008968   2.59103430
H    1.26570068  -1.09193112   2.19577578
H    0.48411158   0.15538259   2.54964326
O    2.73766967   1.24591532   0.57179080
H    2.06794233   1.58934466   1.16319035
H    2.89152227   0.35176195   0.87683337
O    2.75625505  -1.44447460   1.21229073
H    3.38479011  -2.14149025   1.40029259
H    2.41806829  -1.65464685   0.34183729
O    0.63396202   1.93588367   2.21501613
H   -0.10333590   2.09345331   1.62527430
H    0.53340521   2.59127792   2.90536282
O   -2.46626406  -0.28315952  -1.96358548
H   -1.84062395   0.42358293  -2.12271249
H   -1.92267713  -1.06052360  -1.83532727
O   -1.67706096  -1.88332836   1.26928332
H   -2.27880442  -1.14448670   1.17845563
H   -0.96556073  -1.54772888   1.81460181
O    1.76827677  -1.78171794  -1.26976020
H    0.84690923  -2.03945483  -1.29951617
H    1.77945931  -0.89020291  -1.61805280
O   -3.27842549   0.25639955   0.54180452
H   -3.08746882   0.05789781  -0.37490943
H   -4.23421661   0.27951829   0.58828789
O   -0.89953091  -2.42721693  -1.23572058
H   -1.17448175  -3.32516073  -1.42100632
H   -1.14222807  -2.28589906  -0.32064725
O   -1.41469252   2.29015536   0.50922511
H   -1.14883116   2.19776332  -0.40565920
H   -2.11519758   1.64759213   0.62163960
