36
Energy:   -484.13455639
O   -0.21539238  -1.23627786   1.36333597
H   -0.26844271  -0.73242541   2.17546294
H    0.58010858  -0.91918255   0.93571390
O    1.87856381  -0.24300172  -0.04693121
H    2.05608616  -0.98161361  -0.62931437
H    1.37579927   0.37004559  -0.58324517
O    0.20925615   1.39284142  -1.41126596
H    0.34944477   2.22906634  -0.96707355
H   -0.61286537   1.06320041  -1.04838186
O   -0.53377035  -3.30507043  -0.42226442
H   -0.48400386  -2.68747507   0.30734583
H   -0.92021429  -4.09427009  -0.04271623
O   -1.66439923   2.37133060   1.64697341
H   -1.28919938   1.83815960   2.34781975
H   -2.01366655   1.73551536   1.02248708
O    1.68335207  -2.39114303  -1.79173417
H    2.17758082  -3.09738017  -2.20790589
H    0.94803447  -2.83155730  -1.36561783
O    1.93738606   1.69082041   1.97791243
H    2.18268661   1.02785585   1.33251527
H    1.58228185   2.41191696   1.45815036
O    0.10876107  -0.66684685  -3.31553130
H    0.21014144   0.17432891  -2.87013572
H    0.75677556  -1.23708216  -2.90183969
O    0.46846547   3.46038123   0.41419877
H    0.39421518   4.41363007   0.36908351
H   -0.33157822   3.17805977   0.85743295
O   -0.18077913   0.71515191   3.32351251
H   -0.05244056   0.79169523   4.26897651
H    0.62025545   1.07506585   2.94267474
O   -2.11067685  -1.66800396  -2.06402430
H   -1.44765481  -1.33316480  -2.66777620
H   -1.66229761  -2.35655044  -1.57301344
O   -1.92354753   0.25985249  -0.15608011
H   -2.20968548  -0.33340839  -0.85062920
H   -1.41140110  -0.29198614   0.43503073
