36
Energy:   -475.57086021
O    0.60034784  -1.80920747   0.97298502
H    1.01647826  -1.53495043   0.15576387
H   -0.05950176  -1.13711444   1.14363468
O   -3.37181114  -0.88621881  -0.07575053
H   -4.24814462  -1.27008607  -0.04546207
H   -2.78377140  -1.63683997  -0.15947025
O    1.60005990   3.03064665   0.49655782
H    2.23659179   2.32750468   0.36752148
H    2.06689157   3.82663389   0.24218735
O   -0.19083304   1.49569187  -0.96830734
H   -0.56498238   1.08217786  -0.19032901
H    0.37832750   2.18398590  -0.62401174
O    1.42745116  -0.66502199  -1.38450100
H    0.90558866   0.13512154  -1.32398897
H    0.95411261  -1.21352270  -2.01006429
O    2.18414279  -0.11038913   2.47077457
H    1.51474319   0.53871191   2.68711661
H    1.69526994  -0.84447897   2.09882391
O    3.19795435   0.90630756   0.15685572
H    2.85227807   0.28462709  -0.48365436
H    3.02727274   0.49683616   1.00504957
O   -0.51884039  -1.99612252  -2.86922910
H   -0.62252961  -2.31292263  -3.76651282
H   -1.11757040  -1.25190823  -2.80678459
O   -1.14655152   0.23328875   1.21159163
H   -2.08296169   0.06464046   1.10706605
H   -1.09390879   0.85116292   1.94076384
O   -2.14899281   0.09928277  -2.38795028
H   -1.55248358   0.76500713  -2.04557670
H   -2.69005495  -0.14682763  -1.63767481
O   -1.54168210  -2.84831551  -0.43315303
H   -1.19480697  -2.73417277  -1.31795862
H   -0.78588560  -2.71800417   0.13957941
O    0.38944963   2.02958742   2.78286326
H    0.61852742   2.57769879   3.53341582
H    0.78733654   2.47139892   2.03271631
