36
Energy:   -477.04313688
O   -1.01351897  -1.10760125  -2.69520309
H   -1.46747690  -0.57148399  -2.04502440
H   -1.62488071  -1.16306547  -3.42963647
O   -0.18675224  -2.97440340  -0.81620759
H    0.76057105  -2.83885375  -0.79530960
H   -0.48520204  -2.46694752  -1.57095794
O   -1.39793291  -1.63773923   1.16812548
H   -1.90543220  -2.25114427   1.69954863
H   -0.95572983  -2.18866524   0.52223942
O    0.24566695   0.31896924   2.18245116
H   -0.28023513  -0.43210384   1.90759105
H   -0.31219825   0.78849590   2.80258258
O   -0.16334884   2.03706154   0.11080296
H    0.65580200   2.07963146  -0.38256462
H    0.04658196   1.50622612   0.87916137
O    2.65771729  -0.13833760   0.86293974
H    2.62764750   0.60361793   0.25892844
H    1.93222046   0.01533506   1.46814295
O   -2.74016620   2.50163879   1.11822006
H   -1.87875186   2.73594067   0.77282202
H   -3.03394193   1.78055392   0.56147570
O    1.66589509  -0.38661934  -2.70041669
H    2.01509352  -1.10239583  -2.16942110
H    0.73912377  -0.59934237  -2.81030613
O    2.25612438   1.73745659  -1.15746074
H    2.86381990   2.30785279  -1.62819015
H    2.05491212   1.03697974  -1.77800699
O   -1.69437979   1.72152227   3.50731029
H   -2.16842097   2.00891111   2.72697416
H   -1.95958345   2.33800476   4.18984103
O    2.47147151  -2.24215497  -0.80990064
H    3.26306876  -2.77232612  -0.71757413
H    2.56687076  -1.55210633  -0.15342237
O   -2.12271430   0.29185542  -0.65742692
H   -1.42408907   0.92662343  -0.49860564
H   -1.99585191  -0.37781353   0.01464546
