36
Energy:   -478.10386208
O    1.25135323  -0.59843155   3.58118494
H    2.11522903  -0.63417970   3.17048734
H    0.70663203  -1.17452318   3.04487430
O   -1.31417678   0.63985642   1.12977150
H   -0.90008523  -0.21510195   1.24727140
H   -1.03642568   1.14783003   1.89203718
O    1.85387659   2.15975771   1.10746402
H    1.27685783   2.27853193   0.35302789
H    1.27081253   2.20599653   1.86517777
O    0.04190545   1.65536385  -1.00434693
H   -0.56813082   1.59606284  -1.73958226
H   -0.44979160   1.31584379  -0.25655552
O    0.01765590  -1.70046087   1.32496712
H    0.86740467  -1.38349552   1.01887590
H   -0.35405048  -2.15734265   0.57043068
O    2.36818365  -0.48087928   0.69870428
H    2.29615645   0.44895738   0.91422161
H    2.41564183  -0.50272374  -0.25706891
O    1.96144687  -0.01684841  -1.99097212
H    1.33222040   0.61899650  -1.65037389
H    2.60928700   0.51225942  -2.45635360
O   -0.16490260  -1.39073084  -3.07361279
H    0.67470308  -1.02184964  -2.79934868
H   -0.73035009  -0.62948825  -3.20403789
O   -2.93761975  -0.43338082  -0.86251524
H   -2.61205881   0.00407534  -0.07582977
H   -2.50568119  -1.28757224  -0.85827820
O   -1.79421609   0.85866603  -2.92569149
H   -2.45470972   1.22641856  -3.51283550
H   -2.29928864   0.43081511  -2.23426025
O   -1.24483006  -2.64106472  -0.94967865
H   -1.45908403  -3.54114078  -1.19501551
H   -0.82608712  -2.27338892  -1.72794641
O    0.08324116   1.81337728   3.21549885
H    0.49308242   0.98157156   3.45290407
H   -0.05077591   2.26181833   4.05046705
