36
Energy:   -474.67787424
O   -0.64328167   2.93436863   3.12275116
H   -0.00964226   3.37233783   2.55449424
H   -1.19746911   3.64114396   3.45377498
O    2.40852212  -0.18673967   0.45094884
H    2.41513726  -0.82662499  -0.26090427
H    1.90824110   0.55223682   0.10473432
O    0.63995487   1.78433845  -0.27706351
H    0.00013956   1.44835611   0.35061800
H    0.22097407   1.67187818  -1.13031589
O    2.07061970  -2.20968018  -1.39705397
H    2.71049635  -2.88079835  -1.63452003
H    1.47963612  -2.64760078  -0.78452168
O    0.65320996  -1.20529918   2.21404073
H    1.34347328  -0.84385220   1.65805109
H    1.06860060  -1.31922491   3.06885264
O    1.08469684   3.98627151   1.29359018
H    0.96531266   3.30490843   0.63198334
H    2.02878477   4.14345122   1.30856907
O   -2.61053931   0.07381436  -0.68189244
H   -2.10832656   0.55552411  -1.33913662
H   -2.23851057   0.35129179   0.15526509
O   -0.10163941  -1.42837271  -2.90900608
H   -0.76634761  -1.90211623  -2.40904414
H    0.72811610  -1.67935171  -2.50311545
O   -1.94880596  -2.49065358  -1.13416529
H   -2.75328465  -2.98760747  -1.28276784
H   -2.24840630  -1.60588201  -0.92523768
O   -0.81168880   1.13733892  -2.52595884
H   -0.99754301   1.53266211  -3.37766867
H   -0.51643673   0.25050177  -2.73230302
O    0.28068053  -3.20798559   0.33750210
H   -0.55875215  -3.02856004  -0.08604377
H    0.31048694  -2.60171582   1.07762397
O   -1.11596245   0.78022125   1.52841307
H   -1.04867273   1.48177970   2.17611646
H   -0.59031626   0.06732052   1.89131867
