36
Energy:   -482.08896545
O   -0.78107792   1.70898732   2.80740351
H   -0.23197856   0.97207956   3.07515096
H   -1.07254481   2.10238237   3.62991140
O    2.79594933   0.80354929   1.73787904
H    2.22194732   0.32022536   2.33214457
H    2.71954174   0.34248031   0.90252933
O   -0.00385578  -1.63801908   0.86714643
H   -0.43557380  -2.23186305   0.25297973
H    0.71621043  -1.25583415   0.36547804
O    1.16837408   2.95152436   1.23513228
H    1.88657191   2.34960929   1.43038081
H    0.46550333   2.68702899   1.82863607
O    0.81674706  -0.50922989   3.21657169
H    0.50678524  -1.04683734   2.48778246
H    1.08499058  -1.14102180   3.88374202
O   -1.73971735   0.42484908   0.53299968
H   -1.63127429   0.95442058   1.32295283
H   -1.19694734  -0.34856502   0.68617670
O   -2.82931290  -0.59931738  -1.77809041
H   -3.77839377  -0.50637867  -1.86079318
H   -2.61934372  -0.18295552  -0.94215525
O   -0.67922701   0.36407308  -3.25875035
H   -0.36775690   1.03669771  -2.65311488
H   -1.51846049   0.08294370  -2.89421600
O    0.14225145   1.72491261  -0.96374314
H    0.54821706   2.33665727  -0.34958335
H   -0.58993482   1.34656228  -0.47693091
O    0.92055415  -1.75660208  -2.84434684
H    0.38522765  -1.00435502  -3.09689730
H    1.31225909  -2.05838262  -3.66393673
O    1.85051097  -0.36739899  -0.62811216
H    1.75304485  -0.90000881  -1.41745302
H    1.34677260   0.42590610  -0.81017406
O   -1.16012382  -2.79120283  -1.30238094
H   -1.84343574  -2.16773701  -1.54856592
H   -0.43611600  -2.60180393  -1.89918289
