36
Energy:   -477.33887303
O    1.54915532  -1.35794236   2.73710058
H    1.55394625  -2.06984129   3.37695118
H    1.12257125  -1.73133379   1.96584400
O   -2.11938608   1.04062805   1.13413933
H   -1.49280769   0.84772274   1.83157672
H   -2.75693520   1.62802158   1.54001100
O    1.47091449   2.49055367   1.62459518
H    0.99821536   2.50338297   0.79235555
H    2.17809712   1.85984021   1.48922495
O   -0.15134245   1.88456066  -0.58912528
H   -0.55666871   1.85839229  -1.45587650
H   -0.85189050   1.62948790   0.01120975
O    0.47096142  -2.15528239   0.40266295
H    0.90868644  -1.48937858  -0.12762073
H   -0.27992921  -2.42697227  -0.12514357
O    3.19232506   0.32958919   1.30057366
H    4.10145026   0.27959264   1.59591003
H    2.72026424  -0.27457252   1.87361734
O    1.65828528  -0.12078867  -0.96544263
H    1.04922195   0.60691614  -0.84006548
H    2.35622204   0.03820008  -0.32995959
O    0.08451969  -1.04599085  -3.07970048
H    0.81581185  -0.79049902  -2.51741270
H   -0.42001763  -0.24116877  -3.19774863
O   -2.97126196  -0.24588452  -1.17410788
H   -2.75184799   0.08186858  -0.30194548
H   -2.57697392  -1.11739983  -1.20917728
O   -1.51819256   1.21260257  -2.90546184
H   -2.12050959   0.72277930  -2.34553398
H   -2.08231695   1.63424814  -3.55369832
O   -1.49920066  -2.55859172  -1.50438280
H   -1.74078856  -3.36880755  -1.95317836
H   -0.93090934  -2.10122533  -2.12413501
O   -0.17718657   0.79562858   2.98341581
H    0.37826739   0.01643122   3.00695761
H    0.39493413   1.48829757   2.65308353
