36
Energy:   -475.33553966
O    1.39433040  -0.62919189   2.84622358
H    2.15545675  -0.36423270   2.32977887
H    0.89115454  -1.19400458   2.25968071
O   -1.59693614   0.73277700   0.78712473
H   -1.30107224   1.07523856   1.63057982
H   -1.14873965   1.27450798   0.13760236
O    1.55512933   2.58954828   1.15641044
H    1.01842195   2.50163481   0.36872506
H    0.95565782   2.39864920   1.87781413
O    0.14840910   1.86666186  -1.14503481
H    0.69102582   1.07812329  -1.14745527
H    0.52990386   2.42258364  -1.82447912
O   -0.20120870  -1.60267539   0.78712834
H   -0.77202322  -0.83620282   0.84118789
H   -0.69234711  -2.23079226   0.25752084
O    3.25065297   0.49102294   1.09170599
H    2.75271470   1.30705353   1.14052614
H    4.15462624   0.75045814   1.26991245
O    1.56106009  -0.42753116  -0.90771958
H    0.98220197  -0.92640918  -0.33128586
H    2.31746479  -0.21363006  -0.36152355
O    0.02407572  -1.75785613  -2.87631912
H    0.77231891  -1.40287030  -2.39637220
H   -0.51128227  -0.99265257  -3.08628859
O   -3.21455201  -0.60385250  -1.09740292
H   -2.88666055  -0.15904402  -0.31582474
H   -2.81817670  -1.47441327  -1.06215504
O   -1.51884195   0.49122021  -2.92996060
H   -1.05797296   1.08208600  -2.33438590
H   -2.25437372   0.15803584  -2.41594402
O   -1.66595793  -2.92293807  -1.13176145
H   -1.94594147  -3.78522682  -1.43884316
H   -1.07701291  -2.60419623  -1.81570534
O   -0.19248590   1.53817343   3.02910725
H    0.35816714   0.75696261   3.08128694
H   -0.40800520   1.74111127   3.93938167
