36
Energy:   -484.62738364
O    0.71617600   0.31851843   3.36005418
H    0.60370576   0.16161025   4.29758397
H   -0.01374695   0.89066860   3.12322403
O    1.32978475  -1.91452071  -2.46400720
H    2.10367190  -2.19038837  -2.95515642
H    1.66167281  -1.27788877  -1.83093380
O   -0.61315492  -3.08174915  -0.85100755
H   -0.34997291  -2.70767700  -0.01015257
H    0.09889523  -2.85350891  -1.44860509
O   -1.25497303   1.88592116   2.45407148
H   -0.75568514   2.51456632   1.93277625
H   -1.76336040   1.39129614   1.81132719
O   -1.97982155   0.14011797   0.38482399
H   -1.30337517  -0.44509133   0.72567911
H   -2.41917877  -0.37105336  -0.29480896
O   -0.30298675   1.50882344  -1.27158276
H   -0.97450259   1.13752239  -0.69936440
H   -0.46027195   1.10018836  -2.12276463
O   -0.74671862  -0.24961840  -3.30729371
H   -1.50208957  -0.67587350  -2.90238242
H   -0.02807162  -0.87045136  -3.18752404
O   -2.64117941  -1.53947953  -1.72334444
H   -3.39826868  -2.06749298  -1.97681925
H   -1.99289300  -2.17729635  -1.42477068
O    0.47447634   3.21320675   0.80694768
H    0.22785384   2.85460213  -0.04558496
H    1.27541713   2.74462491   1.04180244
O    1.80017921  -0.01631318  -0.53227912
H    1.11833539   0.57499003  -0.85115430
H    2.26411145   0.48983266   0.13466549
O    0.16755970  -1.33829332   1.19792926
H    0.35505024  -0.95336282   2.05402952
H    0.80351243  -0.93328032   0.60821709
O    2.52463445   1.51497770   1.65753290
H    3.27527954   1.87454710   2.13026288
H    1.98717619   1.10618916   2.33595932
