36
Energy:   -478.54300304
O   -0.15284900  -0.85820898   2.53356714
H    0.30497883  -1.52878283   2.02665862
H   -0.38208213  -1.29303310   3.35491482
O   -1.91833541  -0.32915601   0.50232989
H   -1.33742424  -0.53684405   1.23420401
H   -2.26586105   0.53811605   0.71040913
O    1.66762882   2.87106163   0.52626052
H    2.22657805   3.55322469   0.89836423
H    1.16965570   2.53568788   1.27176643
O   -2.31248196   2.34500915   1.09559089
H   -1.80690489   2.67775372   0.35403528
H   -3.02925069   2.97115521   1.19764746
O    0.81143891  -2.81903575   0.96060621
H   -0.00697656  -3.02476847   0.50882971
H    1.43276046  -2.62998697   0.25743344
O    2.01406922   0.54489360  -0.93687073
H    2.07694484   1.34037961  -0.40821157
H    1.11598691   0.54719247  -1.26804250
O    2.35182943  -2.11011794  -1.23381241
H    3.28054239  -2.33590306  -1.28620669
H    2.34258271  -1.16330199  -1.09350596
O    0.00783155  -2.15174413  -2.68806558
H    0.10794172  -2.62885522  -3.51182210
H    0.86390011  -2.22042995  -2.26538281
O   -0.57519349   0.39554208  -1.76242161
H   -1.06487710   0.12782347  -0.98475295
H   -0.47173932  -0.40949618  -2.26980951
O   -0.69884575   3.05946656  -0.93206440
H    0.17011909   3.12170694  -0.53550660
H   -0.67140754   2.25155265  -1.44465987
O   -1.49906832  -2.92944064  -0.48352046
H   -1.10201130  -2.72712910  -1.33066131
H   -1.87956643  -2.10063843  -0.19276296
O    0.07197706   1.90652596   2.46703815
H    0.09342819   0.95390802   2.55809176
H   -0.80863316   2.09693938   2.14377323
