36
Energy:   -475.56410126
O    1.12668643  -1.95391473  -2.73969971
H    0.27406161  -1.52297911  -2.79934247
H    1.23980080  -2.38071863  -3.58897907
O   -2.53502026   1.65866578   1.14652269
H   -2.26714384   1.13875343   1.90425960
H   -1.82190162   2.28467222   1.02078650
O   -1.17828514  -0.47286986  -2.77016387
H   -0.70384340   0.24052574  -2.34331072
H   -2.01403020  -0.51702573  -2.30560786
O   -0.81514776  -1.04481153   0.49726003
H   -0.98446825  -0.78389149   1.40251312
H   -1.66160980  -0.95534522   0.05939058
O    1.32339205  -2.63932319  -0.05488027
H    1.31489358  -2.60040200  -1.01125089
H    0.48936709  -2.25043102   0.20855300
O   -1.25934026   0.00754628   2.99739775
H   -1.32412485  -0.29377945   3.90361936
H   -0.39265548   0.40972576   2.93959630
O    2.74156222  -0.55981822   0.90106556
H    3.53546267  -0.87859326   1.33040972
H    2.27111750  -1.35362787   0.64654671
O    1.13990212   1.10368774   2.49603256
H    0.86554678   1.84742779   1.95955167
H    1.71978490   0.59799296   1.92661128
O   -0.08055611   2.98831170   0.83319967
H    0.17779313   3.84907027   0.50368154
H    0.05025345   2.39807425   0.09108076
O    2.62053875   0.18844953  -1.75099585
H    2.82701536  -0.07587773  -0.85448575
H    2.25763186  -0.59931512  -2.15591225
O    0.20336345   1.06915649  -1.00427598
H   -0.05518807   0.33350965  -0.44911233
H    1.09183372   0.85461173  -1.28856980
O   -3.15069848  -0.24442466  -0.72571482
H   -3.00967618   0.51693274  -0.16297202
H   -4.09079890  -0.41492919  -0.66765233
