36
Energy:   -475.37813264
O    0.24235487  -1.41663222   0.54846395
H    1.10251083  -1.83359613   0.49841725
H    0.04278277  -1.16904177  -0.35436593
O   -2.82078932  -0.18897188  -1.00054899
H   -3.69611207  -0.38714213  -1.33337098
H   -2.75383974  -0.69032537  -0.18790253
O    2.85891141   0.59893134   0.16499794
H    2.98402308  -0.34883024   0.11675983
H    2.38396074   0.73690025   0.98452115
O    0.08086065   2.81626455   0.39949288
H   -0.86975203   2.72370121   0.33625205
H    0.40710854   2.53043753  -0.45379317
O    0.76938820   0.80778264   2.04109525
H    0.56057995   0.04581045   1.50069786
H    0.55953275   1.55964986   1.48712032
O    1.26494086   1.60742285  -1.77018234
H    1.78183071   2.15444701  -2.36163926
H    1.89972854   1.27235253  -1.13693332
O   -2.40173547  -1.42517769   1.35162374
H   -2.34927041  -0.72799731   2.00539647
H   -1.49039731  -1.66237446   1.18006529
O    1.72891859  -2.44861235  -2.55705899
H    0.97897391  -1.85789701  -2.48727214
H    1.61712998  -2.87928814  -3.40455738
O   -2.54231497   2.12636641   0.47786591
H   -2.43837367   1.74066354   1.34772874
H   -2.70208326   1.37903154  -0.09849903
O   -0.28352830  -0.64511987  -2.00724192
H    0.16278883   0.20151756  -2.02266725
H   -1.19831799  -0.43086836  -1.82424473
O    2.82545130  -2.17565204  -0.07912356
H    3.47869201  -2.85445181   0.09040313
H    2.54808748  -2.32969945  -0.98221301
O   -1.83451727   0.84482125   2.85312828
H   -0.88799060   0.85489529   2.71093963
H   -1.94834223   1.19687470   3.73592729
