36
Energy:   -474.71532147
O   -0.24218122   0.27194332   2.20849552
H   -0.38573340  -0.51924145   1.68921595
H    0.59575325   0.61444507   1.89738425
O    1.35719961   2.13093265  -1.12385841
H    2.04820435   2.71430247  -1.43758434
H    1.67928142   1.80828078  -0.28219879
O    2.20550904   1.11958363   1.27229835
H    2.80700597   1.47801991   1.92495194
H    2.48288611   0.20983933   1.16432094
O   -1.36150360   2.66190995  -1.26225768
H   -1.70642181   2.42308171  -0.40189477
H   -0.41179316   2.58667794  -1.16940251
O    1.26947206  -2.32931037  -1.09591645
H    1.10157266  -1.57340454  -1.65863131
H    1.44136250  -3.04797102  -1.70436726
O    0.95176703  -2.25034850   3.00676072
H    0.30131210  -2.53693495   2.36566132
H    0.63908659  -1.39439507   3.29968821
O    2.75639847  -1.48786280   1.08624419
H    2.25893167  -1.86791054   1.81034525
H    2.35383973  -1.85551733   0.29947329
O   -1.96612145   0.53151341  -2.78315606
H   -2.51281317   0.78546487  -3.52670745
H   -1.80696513   1.34933454  -2.31191334
O   -2.76796142  -0.66476204  -0.42076415
H   -2.56966766  -0.35711260  -1.30522062
H   -2.76795602   0.12852092   0.11489805
O    0.70289713  -0.14267815  -2.55573265
H    0.98977574   0.65741452  -2.11552335
H   -0.22310121   0.00709779  -2.74632671
O   -0.72593566  -2.01035999   0.76703059
H   -0.10671521  -2.18751963   0.05892584
H   -1.51120620  -1.68861351   0.32424256
O   -2.31734931   1.61136938   1.11257353
H   -2.89468361   1.92988926   1.80644818
H   -1.58889381   1.19906124   1.57688639
