36
Energy:   -477.36362417
O    1.70494131  -1.24385604   2.49353527
H    2.42215307  -0.82420908   2.01841891
H    1.24024176  -1.75083111   1.82775569
O   -1.96694906   0.95636707   1.34319604
H   -2.61969657   1.51046641   1.77112882
H   -1.32948658   0.76208286   2.03031108
O    1.64005572   2.31516372   1.55959246
H    1.07296410   2.39145465   0.79224728
H    1.09389066   1.88914984   2.22023438
O   -0.17286410   1.84835951  -0.51926095
H   -0.63730113   1.81953393  -1.35574119
H   -0.82119165   1.56432014   0.12511850
O    0.42060985  -2.22160297   0.28966363
H    0.85581546  -1.55660348  -0.24381889
H   -0.30107459  -2.53299296  -0.25663272
O    3.37500845   0.35245652   0.92454331
H    2.85703920   1.11914877   1.16974262
H    4.28385790   0.64485047   0.99332053
O    1.57282528  -0.18269783  -1.11067801
H    0.99617370   0.55277564  -0.90383609
H    2.33745828  -0.05332177  -0.54958082
O   -0.10867371  -1.00130727  -3.17977866
H    0.64564518  -0.81490676  -2.62077087
H   -0.57109232  -1.70896885  -2.73076199
O   -2.93925784  -0.41814477  -0.88164944
H   -2.64989176  -0.03707306  -0.05262383
H   -2.63012968   0.19503423  -1.54849510
O   -1.63552555   1.16741846  -2.76328742
H   -1.91495834   1.54541046  -3.59711667
H   -1.09441325   0.41713095  -3.00925078
O   -1.61377270  -2.67089881  -1.53772345
H   -2.23604482  -3.38602106  -1.67042394
H   -2.15535688  -1.92770696  -1.27204642
O    0.04644679   0.73163432   3.20156678
H    0.59703493  -0.02041425   2.98360462
H    0.05922605   0.76926268   4.15794152
