36
Energy:   -476.50003959
O    2.39110902  -1.43837234   1.80451410
H    2.92070169  -0.83175470   1.28704092
H    1.80376403  -1.84679440   1.16855095
O   -1.66408036   0.31467013   1.85366112
H   -2.25910711   0.67353021   2.51198814
H   -0.86808597   0.10119958   2.34054416
O    1.69637720   2.18721032   1.65509371
H    0.96376010   2.31604590   1.05267738
H    1.36551051   1.56885513   2.30655049
O   -0.46983295   1.84815795  -0.08182641
H   -1.10516444   1.92532817  -0.79360623
H   -0.91936402   1.33033493   0.58601563
O    0.62202645  -2.07130542  -0.17701399
H    0.88564894  -1.29414738  -0.66972123
H   -0.16116843  -2.38699165  -0.62776874
O    3.44703375   0.65794079   0.29165717
H    2.91586878   1.27884405   0.79022992
H    4.30873962   1.07080828   0.23477770
O    1.30862442   0.25671981  -1.42195655
H    0.71934353   0.85511726  -0.96271765
H    2.15892104   0.38829119  -1.00253256
O   -0.69736422  -0.44079215  -3.22595098
H    0.13570679  -0.21063041  -2.81455079
H   -1.28738941   0.27506180  -2.99003732
O   -3.06861217  -0.57997246  -0.38778154
H   -2.59650902  -0.44427039   0.43376298
H   -2.65749851  -1.35227078  -0.77607617
O   -2.38066534   1.42584495  -2.04430786
H   -2.72553656   0.73445048  -1.47926860
H   -3.15843511   1.84638863  -2.41098079
O   -1.62157024  -2.49983430  -1.74758683
H   -1.80984862  -3.25946945  -2.29871073
H   -1.29573938  -1.83669354  -2.35611820
O    0.71998641   0.10173266   3.21359803
H    1.29567424  -0.50379320   2.74652865
H    0.93262253  -0.02947700   4.13761197
