36
Energy:   -476.80941132
O    0.76634059  -0.58780687   3.14464267
H   -0.05351692  -0.14576767   2.92403705
H    0.68389102  -1.45662314   2.75146051
O   -1.36684414   0.59257524   1.74954893
H   -0.60429366   0.85064447   1.23171798
H   -1.52944496  -0.31719262   1.50031958
O    2.81546621   0.41487454   1.71522617
H    3.51371548   0.74691479   2.27952138
H    2.15719281   0.07614096   2.32199429
O   -0.84850110   2.93374924  -1.45151423
H   -0.20445764   2.64956424  -0.80291669
H   -1.66219218   2.50566549  -1.18527565
O   -1.76194549  -1.92269151   0.90075437
H   -0.94397146  -2.39146848   1.06627923
H   -1.78299837  -1.80472250  -0.04891501
O    2.47349201  -1.69997771  -0.08031311
H    2.02561456  -1.29571808  -0.82342265
H    2.76400964  -0.96177581   0.45530738
O    0.73355051   1.37515202   0.20565696
H    1.52840489   1.22199628   0.71652062
H    0.80492355   0.77353301  -0.53541814
O    0.46566037   1.79418290  -3.53721795
H    0.84442614   2.47785479  -4.08981282
H   -0.04953848   2.27010538  -2.88583498
O   -1.85367284  -0.93871480  -1.68245210
H   -2.35800334  -1.14656664  -2.46901438
H   -2.26791614  -0.14957089  -1.33333001
O    0.82325177  -0.34755944  -1.87873612
H    0.84288490   0.31485958  -2.56942232
H   -0.08328119  -0.65460588  -1.86639437
O    0.71933463  -2.89253628   1.57038893
H    1.36219810  -2.54467804   0.95236543
H    1.03492021  -3.77276877   1.77490878
O   -2.86379771   1.30159112  -0.40981722
H   -2.43264616   1.13694955   0.42877288
H   -3.74813672   1.58192033  -0.17403788
