36
Energy:   -476.79917595
O    1.50504700  -1.53424142   2.56401728
H    2.24140920  -1.14882990   2.08919046
H    0.94294489  -1.89866343   1.88029975
O   -1.52882728   0.44404209   1.11452642
H   -1.17585709   0.48740234   2.00321297
H   -1.14350660   1.19691535   0.66626124
O    1.65416944   2.03030578   1.63263473
H    1.04798996   2.24328538   0.92311519
H    1.09952863   1.65925480   2.31887564
O   -0.36674326   2.53914644  -0.21993743
H   -0.56614567   2.24477716  -1.10865406
H   -0.68394535   3.44173884  -0.18925144
O   -0.26243103  -1.88445304   0.43436356
H   -0.73839466  -1.08961636   0.67503994
H   -0.76379364  -2.25352782  -0.29272047
O    3.29800328  -0.02652772   1.05953856
H    2.78632191   0.76245607   1.23819636
H    4.20881709   0.25042813   1.15926571
O    1.78063561  -0.90361158  -1.08729162
H    1.10448298  -1.30192448  -0.53920741
H    2.43899325  -0.59076730  -0.46686795
O    0.04953199  -0.76446255  -3.19690722
H    0.79572936  -0.78650504  -2.59779499
H   -0.32894332   0.10650573  -3.07689659
O   -2.99414597  -0.05945768  -1.22333117
H   -2.72652453   0.05918016  -0.31199388
H   -2.69854400  -0.94188450  -1.44732724
O   -1.33869629   1.55385221  -2.59762207
H   -1.99714665   1.01600822  -2.15785075
H   -1.79156772   1.91059697  -3.36173757
O   -1.65412916  -2.39315045  -1.90084398
H   -1.83782346  -3.17542360  -2.42097567
H   -1.04303560  -1.88702345  -2.43622419
O    0.05099373   0.57067812   3.37972129
H   -0.03740160   0.56849888   4.33282850
H    0.56739188  -0.21135372   3.18480848
