36
Energy:   -474.88457544
O    1.11640953   2.43535417  -2.04426477
H    1.23394492   1.54892666  -2.38582524
H    1.25989248   3.00479230  -2.80016470
O   -4.13563630  -0.52697834   1.16549794
H   -3.69268780  -0.99112183   1.87584946
H   -4.80476301  -0.00074581   1.60319717
O   -1.98229495  -0.19116943  -0.47098410
H   -1.77114320   0.74244642  -0.46811346
H   -2.82536089  -0.24792928  -0.02126200
O    3.31480941  -0.66963825  -0.71880357
H    3.15039183   0.19715897  -0.34750682
H    4.26599435  -0.77013732  -0.68166864
O   -0.99301590   2.31932351  -0.25830993
H   -0.33212580   2.44741366  -0.93878699
H   -0.49174232   2.26025562   0.55499667
O    2.68155486   1.79789905   0.15111572
H    2.21661604   2.16193864  -0.60223607
H    2.03607319   1.80511311   0.85789236
O    0.58191346   1.69119676   1.94426526
H    0.27994196   0.78309421   1.92439553
H    0.49929183   1.95156021   2.86166179
O   -0.42346357  -0.81019752   1.66145828
H   -0.99661814  -0.58757889   0.92785986
H    0.23437148  -1.39384631   1.28351784
O    1.27670953  -2.30877606   0.18523701
H    2.05880853  -1.81980994  -0.07062452
H    0.72393604  -2.30331921  -0.59619983
O   -2.58369235  -1.73545568   3.06093282
H   -1.75335900  -1.45354877   2.67712706
H   -2.42674052  -2.63892957   3.33540122
O   -0.41845277  -1.83732089  -1.97636054
H   -1.03270503  -1.26581167  -1.51559680
H   -0.97429102  -2.41496023  -2.49943652
O    1.57498768  -0.11016782  -2.79857094
H    2.26657638  -0.37411133  -2.19171780
H    0.86050200  -0.72444439  -2.63002910
