36
Energy:   -484.35454326
O    0.89630413  -0.64274588   3.15337658
H    1.70174327  -0.37937844   2.70825049
H    0.46946832  -1.24294576   2.54198215
O   -1.73383892   0.46889558   0.83775835
H   -1.50358691   0.95961865   1.62668594
H   -1.30107259  -0.37787234   0.94697937
O    1.55125488   2.76521120   1.23977239
H    1.63865672   3.71537800   1.16377348
H    1.06260902   2.50591455   0.45860512
O    0.08802201   1.63137267  -0.78796396
H   -0.24161019   1.50991850  -1.67837024
H   -0.61072044   1.29696271  -0.22568216
O   -0.25544626  -1.82242342   0.87618927
H    0.47602414  -1.48722996   0.35770278
H   -0.75733971  -2.36007185   0.26359724
O    2.97265956   0.43137692   1.63998290
H    2.58642910   1.30345565   1.55913388
H    3.84252384   0.58731004   2.00775027
O    1.67066580  -0.57513235  -0.59375802
H    1.17223288   0.23148305  -0.72478503
H    2.30657139  -0.35632789   0.08740315
O    0.33611766  -1.68737744  -2.78497025
H    1.00457244  -1.41856702  -2.15477900
H   -0.06461834  -0.86759371  -3.07410195
O   -2.88872828  -0.42124454  -1.54121334
H   -2.74996210  -0.04979677  -0.67000592
H   -2.61991189  -1.33611364  -1.45764230
O   -1.04026930   0.70561819  -3.13588497
H   -1.77048235   0.34206700  -2.63503440
H   -1.44611363   1.06717525  -3.92379279
O   -1.59073381  -2.87142152  -1.31578535
H   -1.79284093  -3.74772163  -1.64363088
H   -0.90072015  -2.55107697  -1.89672628
O   -0.45864188   1.72064101   2.88870741
H    0.23983283   2.20670581   2.45040850
H   -0.04188413   0.90824197   3.17602714
