36
Energy:   -476.75108559
O   -2.41504031  -2.09037004   0.98744593
H   -3.07978334  -2.77805072   1.02544373
H   -1.61230220  -2.54626718   0.73446139
O    1.19184057   3.89653193  -1.64273927
H    2.08688380   4.23360541  -1.60386860
H    1.17039329   3.19671234  -0.99003382
O   -1.12653061   1.68980879   1.68680310
H   -1.07284888   0.88774881   2.20646636
H   -1.50592945   2.33641731   2.28193820
O    1.01410722   1.69637041  -0.04097763
H    0.32716124   1.77609059   0.62082428
H    0.60720295   1.19922886  -0.75056275
O   -0.25648972   2.53941862  -3.51528744
H    0.26841381   3.09468125  -2.93875338
H   -0.98510272   3.09725964  -3.78762607
O   -1.05957665  -0.68081523   2.94729552
H   -1.62544813  -1.20968774   2.38487648
H   -0.20987433  -1.12028578   2.91407713
O    2.49763101  -0.54325617   0.55258991
H    2.25489665  -1.04331160  -0.22667670
H    2.09847417   0.31657703   0.41995311
O    1.33998434  -1.98303194   2.50264910
H    1.80607475  -1.43307766   1.87293340
H    2.02032484  -2.29274890   3.10051536
O   -0.19625631   0.27175092  -2.01245317
H   -0.27138725   0.98586349  -2.64540690
H   -1.03969719   0.26240266  -1.55995793
O   -2.35567436   0.31032985  -0.38888589
H   -2.05583785   0.88257241   0.31742026
H   -2.48404478  -0.54076072   0.02991923
O    1.34919305  -1.91860275  -1.56925222
H    0.77934128  -1.19113080  -1.81882258
H    1.69590160  -2.24733722  -2.39868497
O   -0.03658920  -3.22425975   0.44451553
H    0.47812943  -2.93784509   1.19901087
H    0.43161949  -2.87280433  -0.31277673
