61
Energy:   -385.85600008
    C      1.78448938      3.31489211     -0.51277479
    H      1.56021552      2.63751582      0.28457254
    H      0.87947781      3.58769801     -1.01420286
    H      2.25028140      4.19224488     -0.11504499
    C      2.73942559      2.63443771     -1.51111272
    N      3.45041901      2.12780847     -2.25442069
    C      2.67181272     -1.31512996     -2.24401795
    H      3.58222288     -1.16908621     -2.78690352
    H      2.43896594     -0.42803731     -1.69288450
    H      1.87810045     -1.52790388     -2.92932605
    C      2.83898059     -2.49584081     -1.26955564
    N      2.96344466     -3.37493371     -0.54402415
    C     -0.83529163     -3.31095361     -1.14216995
    H     -0.08653239     -2.81287076     -0.56236545
    H     -0.65397367     -4.36539275     -1.12871643
    H     -1.80057765     -3.10971011     -0.72669068
    C     -0.78461713     -2.79985574     -2.59400020
    N     -0.74688767     -2.41932015     -3.67495381
    C     -2.15630051      2.85248619      0.56116528
    H     -2.20406075      3.89443367      0.79983785
    H     -1.59082204      2.71791468     -0.33717969
    H     -1.68356358      2.32428728      1.36267935
    C     -3.58181808      2.30675371      0.35701898
    N     -4.64318071      1.90043108      0.20502277
    C      0.73817663     -2.41653569      2.45563113
    H      0.31305204     -1.43800641      2.53717697
    H      1.31012088     -2.48290326      1.55375852
    H      1.37466171     -2.60004772      3.29593415
    C     -0.38919867     -3.46524839      2.42688022
    N     -1.22858083     -4.24606266      2.40547386
    C      0.67206349      1.67967488      3.43709199
    H      1.26847830      2.45392885      3.00152300
    H     -0.00351609      2.10722610      4.14821172
    H      0.11529027      1.18387621      2.66957237
    C      1.58734044      0.66355143      4.14516066
    N      2.26880573     -0.09299867      4.67234997
    C      3.74498540     -0.12275470      1.33382830
    H      3.90955890     -0.71615088      2.20886927
    H      4.45191424     -0.39688455      0.57884251
    H      2.75248420     -0.29022423      0.97079328
    C      3.91913361      1.36686786      1.68353822
    N      4.04879486      2.47595956      1.94391316
    C     -3.18323851     -0.04224182     -2.30377581
    H     -3.88097417      0.76472494     -2.38665994
    H     -2.71918979     -0.21142162     -3.25295233
    H     -2.43510602      0.20601826     -1.58019873
    C     -3.92365686     -1.31748949     -1.85978928
    N     -4.47493198     -2.26696935     -1.52922112
    C     -3.12535156     -1.17618351      1.66277738
    H     -3.27972066     -2.15393113      2.06907772
    H     -2.32181628     -1.20607500      0.95684775
    H     -4.01840840     -0.84840282      1.17297292
    C     -2.77433073     -0.19769389      2.79897385
    N     -2.51297976      0.53083611      3.64492377
    C      0.15075115      1.01188169     -3.68083910
    H     -0.09005756      0.26643629     -2.95198898
    H      1.20938307      1.16665888     -3.69638194
    H     -0.17623434      0.68574981     -4.64604248
    C     -0.55568949      2.33139083     -3.31829636
    N     -1.08166666      3.31382537     -3.04836681
   Cl      0.06944327      0.11775010     -0.04956251
