61
Energy:   -384.67448671
    C      2.77058071      2.79124238     -0.11005615
    H      2.17328061      1.95976709      0.20104128
    H      2.70579450      3.57017143      0.62067730
    H      3.78951519      2.48056556     -0.21081101
    C      2.25698520      3.31401302     -1.46450457
    N      1.87458999      3.70323951     -2.47295298
    C      2.50538972      0.00117266     -3.09628626
    H      1.75054952     -0.22410179     -2.37215377
    H      2.60711728     -0.82128312     -3.77312974
    H      2.22650453      0.87893090     -3.64095370
    C      3.84677229      0.24580569     -2.38043188
    N      4.84549258      0.42794610     -1.84744576
    C      0.18926310     -3.04151103     -1.93835593
    H     -0.04382770     -2.12529246     -2.43946707
    H     -0.09508005     -2.96765197     -0.90947649
    H     -0.34495011     -3.84598083     -2.39916358
    C      1.70285154     -3.30864806     -2.03472936
    N      2.82978693     -3.50754373     -2.10648377
    C     -0.94993502      3.41284837      0.77790413
    H     -0.82520928      4.42770962      0.46262599
    H     -1.51891937      2.87920772      0.04552200
    H      0.00994374      2.95311257      0.88824375
    C     -1.69204394      3.38192626      2.12694756
    N     -2.24457776      3.35890334      3.13137171
    C     -0.63117753     -3.14666270      2.18190408
    H      0.20241288     -3.63924758      2.63730208
    H     -0.27852886     -2.35328257      1.55653541
    H     -1.18119426     -3.84896656      1.59101494
    C     -1.54686378     -2.56878941      3.27697538
    N     -2.22863381     -2.13853648      4.09230574
    C      0.28019457      0.53524340      3.67527783
    H     -0.69806408      0.90350226      3.90396017
    H      0.65358892     -0.02542429      4.50661861
    H      0.23106736     -0.09589563      2.81263703
    C      1.22145514      1.72053876      3.39119432
    N      1.92226641      2.60304504      3.17968123
    C      3.22329436     -1.14029118      0.93035015
    H      3.06624481     -0.08228782      0.95975276
    H      2.61405788     -1.57010956      0.16289581
    H      4.25339224     -1.34233438      0.72304365
    C      2.84360181     -1.75361788      2.29096175
    N      2.56090345     -2.21026749      3.30399894
    C     -3.16520524     -1.45068577     -1.83193899
    H     -4.13646198     -1.00524682     -1.88801628
    H     -2.85890072     -1.76251636     -2.80858546
    H     -2.46647010     -0.73584119     -1.45027748
    C     -3.21382747     -2.67182594     -0.89489440
    N     -3.25002893     -3.58102030     -0.19722210
    C     -3.31903673      0.23120676      1.80838521
    H     -3.65545818      0.71555201      2.70120684
    H     -2.24926820      0.21570913      1.79244155
    H     -3.69065963     -0.77191478      1.78508951
    C     -3.83965007      1.00016320      0.57986262
    N     -4.22727037      1.57268622     -0.33482828
    C     -1.18478093      1.83071241     -2.93036526
    H     -2.00543997      1.68673801     -2.25903056
    H     -1.37196562      2.68704454     -3.54400707
    H     -0.28707007      1.98383183     -2.36861020
    C     -1.02627163      0.58507008     -3.82190885
    N     -0.90825425     -0.34236726     -4.48570358
   Cl     -0.02187161      0.02153908     -0.08593878
