61
Energy:   -384.75109471
    C      3.55783416      1.60867366     -0.00703246
    H      2.66499610      1.02388300      0.06886390
    H      3.48096197      2.46185048      0.63412203
    H      4.39856532      1.01588172      0.28736170
    C      3.74346795      2.07557634     -1.46275977
    N      3.88168075      2.42320660     -2.54661491
    C      0.43186536      3.34660924     -2.24284274
    H     -0.37956097      3.90238122     -2.66427482
    H      0.11243987      2.34515775     -2.04293933
    H      1.24896027      3.32920984     -2.93346004
    C      0.88344156      4.01309787     -0.93003207
    N      1.21966056      4.50932894      0.04741514
    C      2.45176610     -1.27586805     -2.71040661
    H      2.08450221     -0.27100647     -2.69395594
    H      1.77287225     -1.91242684     -2.18239606
    H      2.53693752     -1.60793309     -3.72400305
    C      3.83487049     -1.32802342     -2.03520141
    N      4.86465458     -1.36685547     -1.53248045
    C     -0.46020684     -1.62274990      3.10692008
    H      0.51128874     -1.51505412      3.54223392
    H     -0.37161725     -1.65767348      2.04116621
    H     -0.90965826     -2.52834938      3.45732285
    C     -1.33906452     -0.42409905      3.50996512
    N     -1.99341402      0.46835099      3.81005048
    C     -0.78829274     -3.75863138     -1.03540232
    H     -1.64342106     -3.58916845     -1.65583607
    H     -0.20910183     -4.56306423     -1.43829781
    H     -0.19110925     -2.87144975     -1.00105534
    C     -1.25064776     -4.12162837      0.38799539
    N     -1.59489210     -4.39189613      1.44777967
    C      0.90041839      2.30280060      2.59571970
    H      1.37902663      3.25977332      2.60184720
    H      0.00206810      2.34958729      3.17509596
    H      0.66176925      2.02980826      1.58903164
    C      1.84801123      1.25104040      3.20191135
    N      2.55353717      0.46795713      3.65324858
    C      2.84238819     -2.07047211      1.35711985
    H      3.81508525     -1.68335114      1.13599099
    H      2.78332029     -2.31363207      2.39744831
    H      2.10313238     -1.33400431      1.12044474
    C      2.59142049     -3.33763368      0.51871854
    N      2.40456362     -4.28109308     -0.10550934
    C     -3.59867187     -1.41377074      0.91414064
    H     -2.71100089     -0.84446634      0.73294206
    H     -3.40431952     -2.14695521      1.66883713
    H     -4.37990559     -0.76111349      1.24370322
    C     -4.03158482     -2.11724572     -0.38559368
    N     -4.35390819     -2.64101483     -1.35330497
    C     -2.34923660      2.55541669      0.70874704
    H     -2.33643340      3.51428457      1.18341392
    H     -1.80690507      2.60608282     -0.21223534
    H     -1.89258545      1.83275145      1.35227153
    C     -3.80545450      2.14253938      0.42491302
    N     -4.88967492      1.83513345      0.21358569
    C     -2.78752303      0.34269444     -2.68297417
    H     -2.83844292      0.24055667     -1.61907792
    H     -1.87137668     -0.08061566     -3.03847878
    H     -3.61403140     -0.16880922     -3.13035209
    C     -2.84324823      1.83513214     -3.05863947
    N     -2.88473817      2.94631985     -3.33833937
   Cl     -0.03547893     -0.03503091     -0.36683127
