61
Energy:   -385.49549207
    C     -3.03524106      0.58527210     -2.11699184
    H     -4.03612629      0.96354725     -2.11092101
    H     -2.35858841      1.36212139     -1.82794954
    H     -2.95780143     -0.22976505     -1.42806758
    C     -2.68004308      0.09579976     -3.53327261
    N     -2.41558204     -0.26863464     -4.58775802
    C     -1.32194304      0.52036466      3.74271007
    H     -0.85880913      0.01814119      2.91919398
    H     -1.45978502     -0.16922768      4.54915976
    H     -0.69714763      1.32669285      4.06576524
    C     -2.68936098      1.07517963      3.30231423
    N     -3.70746580      1.48826460      2.97441950
    C      2.23959780      3.10579161     -0.39615694
    H      1.68007541      2.28022488     -0.00850447
    H      1.56819564      3.82831642     -0.81097755
    H      2.80457819      3.55582369      0.39325258
    C      3.19806129      2.60638430     -1.49321668
    N      3.91168093      2.23455286     -2.31002753
    C      0.91072424      0.73252872     -3.51801341
    H      1.91123806      0.89292516     -3.86173608
    H      0.36061866      0.19325608     -4.26062230
    H      0.93194958      0.16757517     -2.60956635
    C      0.23192326      2.09094044     -3.26199226
    N     -0.27347493      3.10233971     -3.07137288
    C     -1.56285139      3.25732932      0.47475962
    H     -2.19904735      2.42210275      0.68103967
    H     -0.95390764      3.03986502     -0.37776363
    H     -2.16184338      4.12098774      0.27425570
    C     -0.66152628      3.52939521      1.69344464
    N      0.00955124      3.73196063      2.60081104
    C     -3.36471990     -1.81474972      1.09786347
    H     -2.51431625     -1.81883108      0.44848134
    H     -3.71975930     -0.81210949      1.21430523
    H     -4.13899557     -2.42048941      0.67539961
    C     -2.96329525     -2.38011670      2.47293380
    N     -2.66441634     -2.80105812      3.49673617
    C      3.48970240     -0.91572659     -0.64930453
    H      4.21893310     -0.42965964     -1.26319514
    H      3.92225291     -1.14958339      0.30101655
    H      2.65114204     -0.26601793     -0.50932505
    C      3.02450518     -2.21381780     -1.33497994
    N      2.67814470     -3.18030570     -1.84549646
    C     -0.59648291     -2.76952292     -2.67055221
    H      0.00976004     -3.64949301     -2.72552781
    H     -0.17030367     -2.08623935     -1.96599993
    H     -0.64130167     -2.30651044     -3.63414435
    C     -2.01789608     -3.15283390     -2.21860388
    N     -3.07620279     -3.43822634     -1.88210780
    C      0.52364308     -3.28405525      1.35500023
    H      0.58043220     -3.16619641      0.29302826
    H     -0.17031700     -2.57513164      1.75593141
    H      0.19464469     -4.27549669      1.58673936
    C      1.91420719     -3.04706899      1.97287480
    N      2.94954537     -2.87062195      2.43291051
    C      2.26890159      0.65696656      2.73036339
    H      1.50620973      1.40574756      2.68008088
    H      2.36113294      0.30889981      3.73795557
    H      2.00765676     -0.16162342      2.09274228
    C      3.60986316      1.25839631      2.27025001
    N      4.60827000      1.70618809      1.92767468
   Cl     -0.20858976     -0.01076824      0.07073420
