61
Energy:   -384.88802758
    C     -0.76635302      3.74969688      0.02715865
    H     -1.81898823      3.93880482     -0.00596956
    H     -0.29642494      4.46072034      0.67408395
    H     -0.59308033      2.76106931      0.39795671
    C     -0.17707244      3.87706544     -1.38992485
    N      0.26167374      3.97189712     -2.44500792
    C      1.61026088      0.66479053      3.27189269
    H      1.10443692      0.22813347      4.10757978
    H      2.66682566      0.63231726      3.43777051
    H      1.37154988      0.11680776      2.38440689
    C      1.16117039      2.12867567      3.10770374
    N      0.82680210      3.21860471      2.98545760
    C      0.22686082     -3.13262064     -2.34700281
    H      1.21922093     -3.03097949     -2.73403081
    H     -0.00766529     -4.17056121     -2.23486025
    H      0.16385062     -2.64786376     -1.39519422
    C     -0.77316782     -2.48273575     -3.32126783
    N     -1.51773461     -1.99886690     -4.04665243
    C     -2.35168399      1.19935369     -2.84526486
    H     -2.95458980      0.88197150     -3.67029413
    H     -1.81431337      0.36133904     -2.45301066
    H     -1.65856725      1.94447464     -3.17584475
    C     -3.25493387      1.78984535     -1.74660237
    N     -3.92744446      2.22949323     -0.92859821
    C     -2.66150755      1.18591747      2.26132534
    H     -3.72058380      1.03574735      2.23474323
    H     -2.20970508      0.68829441      1.42877210
    H     -2.44835455      2.23318599      2.20942613
    C     -2.09426726      0.61097058      3.57253643
    N     -1.67193107      0.18289648      4.54879269
    C      3.06505522     -1.92523953      0.25946677
    H      2.98946095     -0.86197224      0.16647017
    H      2.21566293     -2.38484359     -0.20118053
    H      3.95856492     -2.26282053     -0.22279723
    C      3.11035844     -2.30819971      1.75040242
    N      3.14408875     -2.59333098      2.86047178
    C     -0.45602328     -2.53728297      2.65730369
    H      0.35663864     -2.65739539      3.34290838
    H     -1.38309076     -2.61614566      3.18572176
    H     -0.39121185     -1.57579533      2.19228747
    C     -0.38464467     -3.63473295      1.57929226
    N     -0.33150006     -4.45183434      0.77666375
    C     -3.04067666     -1.87650428     -0.40682620
    H     -2.86155604     -0.83587338     -0.57975196
    H     -3.70773696     -2.25260292     -1.15414103
    H     -2.11463821     -2.41047537     -0.45401465
    C     -3.67121252     -2.06441508      0.98555093
    N     -4.14067513     -2.20432321      2.02223899
    C      2.90910422      2.22674086     -0.23931625
    H      1.98327222      2.42011467      0.26102550
    H      2.78008228      1.41839255     -0.92839203
    H      3.21703066      3.10282931     -0.77087003
    C      3.98412337      1.85093130      0.79736162
    N      4.78452399      1.57112399      1.56921541
    C      1.28675214      0.72046708     -3.59589876
    H      1.11961537      1.26679465     -2.69119347
    H      0.38981339      0.20734060     -3.87356978
    H      1.56583974      1.39820312     -4.37543904
    C      2.41654994     -0.30275276     -3.37640371
    N      3.25773576     -1.06458645     -3.21297967
   Cl      0.05440996      0.00974320     -0.23368734
