61
Energy:   -385.33716967
    C      1.70081292      1.31289633     -2.82315750
    H      2.18136045      1.30127191     -1.86720817
    H      2.43551715      1.20171870     -3.59305900
    H      0.99992228      0.50639955     -2.87985290
    C      0.96051607      2.65039432     -3.00932865
    N      0.40933141      3.64622237     -3.14794153
    C     -0.29121472     -2.32765312     -3.00620661
    H      0.45065320     -2.03277285     -3.71865156
    H     -0.49452359     -1.51171937     -2.34452942
    H     -1.18890803     -2.60299476     -3.51926878
    C      0.22567110     -3.53011095     -2.19471156
    N      0.61051608     -4.42539546     -1.59051660
    C      3.37690031     -1.94718675     -1.00161448
    H      4.35690544     -1.68181971     -0.66387128
    H      3.15836536     -2.95251230     -0.70757009
    H      2.65819471     -1.28423661     -0.56703600
    C      3.31535120     -1.83635205     -2.53638723
    N      3.26952508     -1.75383058     -3.67909530
    C      0.08121176      3.82733329      0.34476131
    H      0.20944553      2.84689483     -0.06413564
    H      0.45796994      3.84827976      1.34601733
    H      0.61631623      4.53568687     -0.25256398
    C     -1.41575224      4.18878549      0.35190898
    N     -2.53030998      4.45790308      0.35723074
    C      0.75232133     -3.33227306      1.67558269
    H      0.56543951     -2.84144779      0.74334564
    H     -0.04298270     -3.11637158      2.35806136
    H      0.80939183     -4.38894227      1.51717743
    C      2.08379827     -2.82861660      2.26303426
    N      3.07514337     -2.45362148      2.70041865
    C      0.02524610     -0.05847118      3.72736210
    H      0.99320389     -0.47752736      3.54750153
    H     -0.63959764     -0.34534813      2.93959088
    H     -0.35173905     -0.41945504      4.66142417
    C      0.13156548      1.47709445      3.77567751
    N      0.21072509      2.62039286      3.81165053
    C      3.07516045      1.18378186      1.65594504
    H      3.59350596      1.50188921      2.53630054
    H      2.76390015      0.16679147      1.77319127
    H      2.21679190      1.80419560      1.50366471
    C      4.01252329      1.29671916      0.43931194
    N      4.71043253      1.38080612     -0.46652670
    C     -2.81962127     -2.17852960      0.03207040
    H     -2.62482944     -1.18606282     -0.31716591
    H     -3.78507262     -2.49249936     -0.30590262
    H     -2.07405964     -2.84395889     -0.35034405
    C     -2.78349899     -2.19733742      1.57153182
    N     -2.75660431     -2.21134070      2.71773082
    C     -3.02491766      1.43122319      1.98274517
    H     -2.97331360      0.77528824      2.82653812
    H     -3.18000110      2.43475248      2.32005390
    H     -2.10875278      1.37742687      1.43261158
    C     -4.19457933      1.00837290      1.07462117
    N     -5.06544562      0.69354164      0.39848157
    C     -2.59499632      1.75507397     -2.06642503
    H     -2.17540942      2.44541456     -2.76804949
    H     -1.88853015      1.56691869     -1.28514260
    H     -3.48770968      2.17048771     -1.64762510
    C     -2.93083167      0.43441492     -2.78383306
    N     -3.18087636     -0.54887577     -3.31797596
   Cl      0.11044253     -0.04110885      0.09015368
