61
Energy:   -386.37654345
    C      0.98483739      3.66049813      0.47852680
    H     -0.07561763      3.79426246      0.42910569
    H      1.41384536      4.43196936      1.08324441
    H      1.20423352      2.70601099      0.90947776
    C      1.57788374      3.73138370     -0.94093481
    N      2.01943370      3.78416124     -1.99778850
    C      1.97046660      0.22599815     -3.14940134
    H      1.83283441      1.28276171     -3.05344134
    H      1.29760082     -0.28255873     -2.49097850
    H      1.77306155     -0.06919174     -4.15875424
    C      3.42109608     -0.13815756     -2.78243441
    N      4.50115566     -0.40928804     -2.50921085
    C      2.40256980     -2.81418466     -0.56086668
    H      3.33306257     -3.01402546     -0.07184003
    H      2.04273888     -1.85147679     -0.26318506
    H      2.54642918     -2.82900909     -1.62104771
    C      1.37419156     -3.89080881     -0.16726963
    N      0.60851722     -4.69240443      0.12578127
    C     -1.87388124      2.29100206      2.41708896
    H     -2.54073407      3.11051639      2.58621537
    H     -1.90881530      2.00982992      1.38528426
    H     -0.87709015      2.58350808      2.67350042
    C     -2.29846752      1.09519958      3.28966155
    N     -2.61459130      0.20487028      3.93933151
    C     -1.58975422     -2.76760417      1.91067459
    H     -0.89542134     -2.40320824      1.18265148
    H     -1.21442278     -3.67318032      2.33957696
    H     -1.71748304     -2.03482274      2.67984026
    C     -2.94543961     -3.04336715      1.23416007
    N     -3.95480900     -3.24868524      0.73046426
    C      1.14362484     -0.52453148      3.49147018
    H      0.11663710     -0.65680892      3.76109777
    H      1.76365245     -1.07557876      4.16734869
    H      1.29921199     -0.87997428      2.49429811
    C      1.50541467      0.97051990      3.56583071
    N      1.77478364      2.08365361      3.62119551
    C      3.73919673      0.97470472      0.60364446
    H      3.59724549      1.81100566      1.25583367
    H      2.84082245      0.79759316      0.05006138
    H      4.54057722      1.18292818     -0.07409545
    C      4.08309957     -0.27372357      1.43716569
    N      4.33915087     -1.20323518      2.05776013
    C     -1.58486736     -2.65889137     -2.10302753
    H     -1.50131526     -1.77668868     -1.50332957
    H     -1.59701730     -3.52103931     -1.46942481
    H     -2.49144500     -2.62017473     -2.67005230
    C     -0.38283686     -2.74347840     -3.06196846
    N      0.51212949     -2.80645728     -3.77594357
    C     -3.90845200      0.15298495     -0.05376530
    H     -4.65218686     -0.43871041      0.43781911
    H     -4.04575352      1.18289784      0.20182583
    H     -2.93575546     -0.16535001      0.25836190
    C     -4.04037433     -0.01955663     -1.57837210
    N     -4.13859650     -0.14802168     -2.71351117
    C     -1.38163027      2.11675852     -2.71535894
    H     -1.92572903      2.16877886     -3.63522338
    H     -1.33395597      1.09976569     -2.38619054
    H     -0.39011550      2.48978154     -2.86586268
    C     -2.09419147      2.96872478     -1.64858340
    N     -2.62472567      3.60305238     -0.85432053
   Cl     -0.02402897      0.15907204      0.07788404
