61
Energy:   -385.20170709
    C      3.46466572      1.27558861      1.41368622
    H      3.84223283      0.99183286      2.37380389
    H      4.23585193      1.16498989      0.68024308
    H      2.63589793      0.64935194      1.15703338
    C      3.00412492      2.74447954      1.45683266
    N      2.66123136      3.83813560      1.48895715
    C      1.94498621      2.84313658     -2.01613287
    H      2.20634584      3.62920630     -1.33886946
    H      1.07164565      2.33933501     -1.65786016
    H      1.74687488      3.25651654     -2.98296688
    C      3.11091556      1.84192156     -2.11501271
    N      3.97900296      1.09647147     -2.18863325
    C      0.85071188     -0.71280077     -3.59317444
    H      0.79649805      0.28130848     -3.20111851
    H      1.67798545     -0.78548928     -4.26788469
    H      0.98398862     -1.40641545     -2.78941137
    C     -0.45373743     -1.04067178     -4.34318282
    N     -1.42495924     -1.28478665     -4.90159816
    C     -0.96103135      3.34474562      0.80629541
    H     -1.06634533      4.38136908      0.56294184
    H     -1.59082982      2.76244464      0.16662476
    H      0.05790787      3.04806087      0.66976656
    C     -1.36953043      3.11786474      2.27369227
    N     -1.67367657      2.94894161      3.36623594
    C     -0.25881530     -3.35374128      1.88604787
    H      0.76010936     -3.57249871      2.12861315
    H     -0.29436433     -2.52721848      1.20744974
    H     -0.70838697     -4.21027566      1.42873699
    C     -1.02709532     -2.99569920      3.17179734
    N     -1.59911471     -2.72912060      4.12909626
    C      0.38255976      0.23486290      3.71099028
    H     -0.29733428     -0.12289874      4.45573915
    H     -0.11549719      0.27883663      2.76499626
    H      0.72411978      1.21254082      3.98002881
    C      1.58633966     -0.72064412      3.61341830
    N      2.48260851     -1.43206252      3.54077152
    C      2.93514635     -2.08124238     -0.23716934
    H      3.95701647     -2.38246601     -0.13743982
    H      2.54421598     -1.82207933      0.72455154
    H      2.87506322     -1.23324637     -0.88693229
    C      2.11353811     -3.24118897     -0.82969258
    N      1.50181343     -4.10482194     -1.27085305
    C     -2.00534887     -2.51585087     -1.55974634
    H     -2.29391066     -2.95530129     -2.49168819
    H     -0.98742684     -2.76756342     -1.34673314
    H     -2.10440260     -1.45221532     -1.62112123
    C     -2.91252069     -3.05193390     -0.43669057
    N     -3.58795135     -3.45107209      0.39947550
    C     -3.09199599     -0.24843837      1.96957111
    H     -2.79902031      0.23237533      2.87945222
    H     -2.22574036     -0.63870344      1.47743958
    H     -3.76749976     -1.04834606      2.19034569
    C     -3.78820328      0.77251025      1.05057202
    N     -4.30656125      1.53265290      0.36633542
    C     -2.60093550      1.38466918     -2.58098241
    H     -3.46522669      1.97995935     -2.37234268
    H     -2.15192549      1.07308184     -1.66108979
    H     -2.88912379      0.52350162     -3.14687730
    C     -1.58846353      2.21578822     -3.39076118
    N     -0.83463213      2.83459411     -3.99367829
   Cl      0.10820907      0.05771892     -0.13189840
