61
Energy:   -385.47236601
    C      2.75823683      1.27043877     -2.12876343
    H      1.78601232      1.35929404     -2.56669542
    H      2.75136857      0.48584063     -1.40126246
    H      3.47356468      1.04341433     -2.89143312
    C      3.13786181      2.59853627     -1.44785088
    N      3.42050986      3.58736522     -0.94088053
    C      2.70228006     -2.56639650     -0.14951292
    H      2.12510138     -1.72133674      0.16295942
    H      3.55690348     -2.66929680      0.48604150
    H      2.10283652     -3.45051568     -0.08706459
    C      3.16571845     -2.36208024     -1.60384429
    N      3.51076940     -2.20995750     -2.68666010
    C     -2.40734338      2.04175628     -2.21649256
    H     -1.37890017      1.98730003     -2.50673258
    H     -3.02407877      2.06144058     -3.09064877
    H     -2.65635071      1.18662531     -1.62349554
    C     -2.64151087      3.32255353     -1.39410337
    N     -2.81585921      4.27616531     -0.78179723
    C     -2.89790509      1.23312013      1.79319741
    H     -3.20433354      1.58601027      2.75573071
    H     -2.26397231      1.96111517      1.33162234
    H     -2.36268257      0.31329145      1.90433304
    C     -4.13958907      1.00131878      0.91223826
    N     -5.06407924      0.82873213      0.25632413
    C     -0.76249951     -3.35918513      1.13270772
    H     -1.14805883     -4.21324185      0.61615054
    H      0.08406477     -3.64928891      1.71928066
    H     -0.46624735     -2.61621320      0.42198523
    C     -1.85238563     -2.78177249      2.05484811
    N     -2.66385538     -2.35186252      2.74142354
    C      0.15879414     -0.15677614      3.61784636
    H     -0.79101413     -0.56131045      3.89912276
    H      0.05840718      0.38425364      2.70018176
    H      0.50660249      0.50328027      4.38482353
    C      1.16970801     -1.30321744      3.42989555
    N      1.92237933     -2.15679510      3.28995762
    C      3.21211528      1.18491358      1.82935692
    H      2.27485342      0.90058954      1.39854347
    H      3.37536214      2.23032689      1.67010692
    H      3.19795466      0.98209596      2.87986327
    C      4.34650101      0.38141828      1.16666217
    N      5.19110275     -0.21682049      0.67325581
    C      0.19006166     -1.71041313     -3.49179661
    H      0.96516145     -1.92331862     -4.19804851
    H      0.54008161     -0.98698191     -2.78537437
    H     -0.66429607     -1.32243041     -4.00603524
    C     -0.19963393     -3.00359594     -2.75192124
    N     -0.48978001     -3.96642932     -2.20105039
    C      0.32253847      3.90991914      0.82697064
    H      0.17419007      3.03213292      0.23335098
    H      1.18544901      4.43626551      0.47590941
    H     -0.53704266      4.54238282      0.74945252
    C      0.53125777      3.50545416      2.29817570
    N      0.68665878      3.20431160      3.39355475
    C     -3.31793456     -1.85911912     -1.17033927
    H     -2.60905211     -1.24241876     -0.65841496
    H     -3.00729590     -2.88150242     -1.11434717
    H     -4.27925396     -1.75286085     -0.71265677
    C     -3.40170167     -1.42817069     -2.64643768
    N     -3.46407009     -1.10730999     -3.74546005
   Cl     -0.07368060      0.18895583     -0.20675271
