61
Energy:   -385.11103352
    C      3.26205106      0.36640081      1.56564044
    H      3.04631969      0.98629986      0.72060475
    H      2.57128158     -0.45023956      1.59453886
    H      4.25934094     -0.01272320      1.48454186
    C      3.13138251      1.19521790      2.85699166
    N      3.03409383      1.81230990      3.81846133
    C      0.22276440     -1.39271888     -3.74999866
    H     -0.16626541     -0.65491227     -4.42022057
    H      0.01148008     -1.10506247     -2.74128076
    H     -0.23548276     -2.33767787     -3.95484283
    C      1.74630406     -1.50858470     -3.94235775
    N      2.88064859     -1.59485207     -4.08557783
    C     -2.73156677     -2.01554583     -0.94128984
    H     -2.84900624     -1.03393530     -0.53196243
    H     -1.72944935     -2.35282887     -0.77727791
    H     -3.41595239     -2.68529856     -0.46385221
    C     -3.01983852     -1.97895242     -2.45362589
    N     -3.23446994     -1.95170696     -3.57962882
    C      0.54838138      3.45345414      1.37705572
    H      0.28152933      4.20980478      2.08530982
    H      0.64284372      2.51284799      1.87829023
    H     -0.21145463      3.38317479      0.62698296
    C      1.89009194      3.81979471      0.71583915
    N      2.88905644      4.09255192      0.22353335
    C     -0.64767112     -2.95094436      2.07999182
    H     -0.92226362     -2.01082217      1.64909811
    H     -1.28601364     -3.16179351      2.91243434
    H     -0.75107889     -3.72321270      1.34663820
    C      0.81510536     -2.88906319      2.55754358
    N      1.90420895     -2.84298984      2.91310257
    C     -0.12756047      0.26902265      3.97616981
    H      0.14405742      0.17517773      2.94548215
    H     -0.78182255     -0.53313607      4.24706020
    H      0.75350352      0.23078789      4.58210994
    C     -0.84491366      1.61362999      4.19760945
    N     -1.37901572      2.61475127      4.36248133
    C      2.51976931     -2.60130482     -0.70816413
    H      2.23298009     -1.57471213     -0.80175670
    H      3.29288912     -2.82145713     -1.41436370
    H      2.88005617     -2.78203976      0.28301060
    C      1.30127090     -3.50185455     -0.98361251
    N      0.39404344     -4.17235476     -1.18869634
    C      2.47420995      1.79959441     -2.37784502
    H      1.90738628      1.86347424     -1.47256579
    H      3.22947491      2.55753194     -2.37999795
    H      2.93544519      0.83628629     -2.44264173
    C      1.53915973      2.00323569     -3.58441508
    N      0.84297234      2.15485589     -4.48276133
    C     -3.34552556      1.22960135      1.59691105
    H     -2.53734401      1.22303608      0.89569806
    H     -3.21447684      2.03878435      2.28462334
    H     -4.27073129      1.35251150      1.07366488
    C     -3.36571047     -0.10246929      2.36942666
    N     -3.38073905     -1.09425644      2.94459964
    C     -2.03472451      1.66728406     -2.63001366
    H     -1.64634706      0.67573770     -2.73441174
    H     -1.41805599      2.22259591     -1.95455251
    H     -2.04209479      2.14983335     -3.58499584
    C     -3.47063427      1.60062528     -2.07745618
    N     -4.53973435      1.55099480     -1.66605201
   Cl      0.01584166      0.17624051     -0.03922815
