61
Energy:   -384.94202775
    C      1.07113456      3.65566382     -0.96918563
    H      1.03629375      2.63789622     -0.64080259
    H      0.31939015      4.22095946     -0.45906772
    H      2.03488327      4.06731665     -0.75324709
    C      0.81615110      3.71441295     -2.48679294
    N      0.62630432      3.75815435     -3.61672058
    C      1.76247121      0.34693664     -3.18071750
    H      1.25775832      0.12940400     -4.09878320
    H      2.39701879      1.19786745     -3.31549591
    H      1.04153683      0.55679694     -2.41841089
    C      2.61321441     -0.86672734     -2.76255995
    N      3.24663140     -1.77035534     -2.45122264
    C      2.15099698     -3.34194253      0.39901364
    H      2.48702425     -3.49927967      1.40262257
    H      1.70590842     -2.37213707      0.31981364
    H      2.98320519     -3.40817645     -0.27027080
    C      1.11020416     -4.41596412      0.03182444
    N      0.33528659     -5.21562202     -0.24156461
    C     -0.83377903      2.88256682      2.24762271
    H     -1.38503547      3.74756470      2.55224572
    H     -1.22540495      2.01788498      2.74143802
    H     -0.92124747      2.75863929      1.18842947
    C      0.64915855      3.06047526      2.62291556
    N      1.75327299      3.19293618      2.90233814
    C     -1.78236388     -2.99996089      1.59340248
    H     -1.68677271     -4.03680938      1.83979185
    H     -0.81610513     -2.59402813      1.37785268
    H     -2.41322666     -2.89387007      0.73569857
    C     -2.40266429     -2.24460398      2.78347111
    N     -2.86450614     -1.68220644      3.66953130
    C      3.51577023      0.61829106      0.66070136
    H      4.36345771      0.37990477      1.26856491
    H      3.11538863     -0.27989687      0.23897619
    H      2.76885208      1.09421917      1.26112189
    C      3.94698869      1.56912929     -0.47135752
    N      4.26805043      2.27707158     -1.31422680
    C      0.73174953     -0.41522840      3.74743030
    H      1.40337974      0.06744426      3.06857822
    H      0.85166308      0.00244755      4.72521690
    H     -0.27549434     -0.26799668      3.41776122
    C      1.04219699     -1.92296367      3.79166518
    N      1.27333924     -3.04554112      3.82460006
    C     -1.01615619     -2.45523381     -2.15386611
    H     -1.24324242     -3.50031821     -2.18749097
    H     -1.73255806     -1.95424763     -1.53687317
    H     -0.03615651     -2.31608182     -1.74749626
    C     -1.06870563     -1.87241292     -3.57835141
    N     -1.10783109     -1.43847628     -4.63894547
    C     -3.67323194      0.60012145      1.12208819
    H     -4.27645984      0.34492825      1.96819261
    H     -3.86339733      1.61503281      0.84156876
    H     -2.63945222      0.48744816      1.37408684
    C     -4.01920929     -0.33114112     -0.05462320
    N     -4.27680516     -1.02450844     -0.93073831
    C     -2.07690907      1.46568730     -2.62014214
    H     -1.40286724      0.77743730     -2.15443866
    H     -1.62346600      1.86749825     -3.50209250
    H     -2.98048869      0.95684613     -2.88381551
    C     -2.39916589      2.61029833     -1.64156351
    N     -2.63910074      3.46251327     -0.91296724
   Cl      0.00312180      0.02393578      0.27526630
