61
Energy:   -386.00202549
    C      2.61757539      1.25982498      2.55615293
    H      2.04930441      1.87108121      1.88657539
    H      2.87933570      1.82901044      3.42356779
    H      2.03323177      0.41250040      2.84852716
    C      3.89974189      0.78038449      1.85061351
    N      4.85437313      0.42341925      1.32530734
    C     -3.26576235      1.74374667     -1.25632015
    H     -2.39274333      1.16331946     -1.04221216
    H     -3.38360110      1.83309778     -2.31605102
    H     -4.12570975      1.26090592     -0.84128476
    C     -3.11497574      3.14546136     -0.63659497
    N     -3.00270825      4.18910167     -0.17518140
    C     -0.35837477     -0.20231271     -3.72287439
    H     -0.49376973      0.49285801     -4.52493802
    H      0.34010665     -0.95686848     -4.01896287
    H      0.01650711      0.31325631     -2.86348434
    C     -1.70835040     -0.85887776     -3.37923489
    N     -2.71346863     -1.34772029     -3.12337967
    C     -0.54005901     -1.31029331      3.49139847
    H     -0.16971175     -0.58361849      2.79880422
    H      0.16045148     -1.43010603      4.29129162
    H     -1.47878188     -0.98127796      3.88566663
    C     -0.73023484     -2.65725962      2.76951557
    N     -0.87182938     -3.66013726      2.23204094
    C      0.44284479      3.44067650     -1.84733590
    H     -0.09088060      3.59632456     -0.93310887
    H      1.08617756      4.27563795     -2.03135063
    H      1.02904998      2.54882945     -1.77071081
    C     -0.55860693      3.29853213     -3.00858067
    N     -1.30423326      3.19269918     -3.87318019
    C     -1.48086127      2.42026003      2.43660358
    H     -1.80595658      1.44068918      2.15437288
    H     -0.88629748      2.83871540      1.65156339
    H     -2.33358965      3.04319551      2.60895440
    C     -0.64140156      2.33128531      3.72462178
    N     -0.01638564      2.26503959      4.68360987
    C     -3.20108568     -1.65114525      0.27338538
    H     -3.98788061     -1.66529603     -0.45163440
    H     -2.96692179     -2.65359383      0.56521273
    H     -2.33318165     -1.19127308     -0.15106636
    C     -3.65484391     -0.84987284      1.50775404
    N     -3.99268754     -0.25328911      2.42679761
    C      2.75684166     -2.54270876      0.95733576
    H      2.61424332     -3.55218905      0.63250437
    H      3.68288984     -2.17114739      0.57097322
    H      1.95175502     -1.93569055      0.59919685
    C      2.78798256     -2.49823475      2.49637842
    N      2.81116837     -2.46512183      3.64226564
    C      3.22060148      0.00333247     -1.85930501
    H      3.09348655      0.56816713     -0.95946959
    H      4.20593697     -0.41315439     -1.88279494
    H      2.49890220     -0.78604377     -1.88987264
    C      3.02411257      0.92593588     -3.07659506
    N      2.87781764      1.61285606     -3.98292283
    C     -0.32187022     -3.38656686     -1.11825747
    H     -1.23965797     -3.35487460     -1.66740356
    H     -0.27645529     -2.55134168     -0.45099779
    H     -0.27402406     -4.29550098     -0.55571983
    C      0.86483393     -3.32609413     -2.09788818
    N      1.74838911     -3.28106943     -2.82726777
   Cl      0.16924149      0.29253597      0.04498966
