61
Energy:   -386.28272966
    C      2.81081752      2.55411392     -0.03257527
    H      2.10745787      2.20533570      0.69443169
    H      3.53589449      3.18004221      0.44426460
    H      3.30287313      1.71743704     -0.48285537
    C      2.07136727      3.35941573     -1.11714999
    N      1.52081295      3.95899953     -1.92466517
    C      1.35980609      0.52186712     -3.48535853
    H      1.33986473      1.57212636     -3.68897106
    H      0.62557128      0.28850697     -2.74283487
    H      1.14417189     -0.01956800     -4.38271520
    C      2.75561051      0.12540423     -2.96946399
    N      3.79485035     -0.16978041     -2.58535705
    C      1.07944986     -3.05839827     -1.50853262
    H      0.22778962     -2.94185798     -0.87135651
    H      1.78837393     -2.28413965     -1.30153179
    H      1.53058656     -4.01208542     -1.33005130
    C      0.63558283     -2.96788604     -2.98039864
    N      0.30510365     -2.90049558     -4.07626980
    C     -1.03875479      3.20281499      1.40874510
    H     -1.20503678      4.22609759      1.14389949
    H     -1.44280676      2.56744451      0.64851787
    H      0.01223963      3.02456053      1.50113103
    C     -1.73054777      2.90106414      2.75111945
    N     -2.24561910      2.67639691      3.75057817
    C     -0.51044868     -3.38476443      1.97894010
    H      0.20300986     -4.17071084      2.11371895
    H     -0.02438480     -2.53047679      1.55605287
    H     -1.28602788     -3.71615426      1.32048981
    C     -1.12061109     -3.00617044      3.34127942
    N     -1.57490475     -2.72429001      4.35560297
    C      0.48101968      0.16088288      3.74665289
    H      0.14007907      0.09519811      4.75875229
    H      0.98067578     -0.74664375      3.47899957
    H     -0.35597860      0.31204834      3.09743645
    C      1.45724158      1.34401661      3.60959314
    N      2.18408316      2.22491345      3.50754592
    C      3.49781505     -0.96160262      1.03991521
    H      2.96411967     -0.27700079      1.66552672
    H      3.20354989     -0.81761444      0.02130120
    H      4.54911418     -0.78690038      1.13556223
    C      3.17637384     -2.40559601      1.46788559
    N      2.93704626     -3.48071472      1.78652898
    C     -2.43053431     -1.10690191     -2.42263199
    H     -3.24036613     -0.41139832     -2.34950629
    H     -2.34775950     -1.45314551     -3.43167251
    H     -1.51948940     -0.62505316     -2.13502454
    C     -2.69533983     -2.30307931     -1.48955233
    N     -2.89249958     -3.19368777     -0.79483211
    C     -3.14556003     -0.46935879      1.71936671
    H     -3.91521392     -1.15982319      1.99467015
    H     -2.80647355      0.05244390      2.58979270
    H     -2.32757723     -1.00280141      1.28205422
    C     -3.70314955      0.54114839      0.69977406
    N     -4.11830030      1.29351691     -0.05935901
    C     -1.65456427      2.67001623     -2.27082415
    H     -2.61929462      2.72279890     -1.81103124
    H     -1.21290189      3.64449183     -2.28601460
    H     -1.02973710      2.00388601     -1.71336508
    C     -1.80102170      2.15026089     -3.71304626
    N     -1.91006591      1.76327941     -4.78684617
   Cl      0.18261762      0.02757086      0.13366391
