61
Energy:   -384.96581337
    C      1.82007121      1.59654158     -2.95166918
    H      2.79256089      1.30503267     -3.28958420
    H      1.17774216      1.74067523     -3.79519628
    H      1.41654968      0.83061108     -2.32284493
    C      1.92565628      2.91102146     -2.15631112
    N      2.00426916      3.88971148     -1.56413090
    C      1.82841692     -2.85983101     -1.49001767
    H      1.31585881     -3.35660126     -2.28713979
    H      1.12856000     -2.28695203     -0.91825805
    H      2.29491138     -3.58660279     -0.85828608
    C      2.90198685     -1.92336095     -2.07488639
    N      3.70130846     -1.22611642     -2.51034774
    C      1.67634292     -2.31525515      2.47765558
    H      1.01581796     -1.92100232      1.73390047
    H      1.75222781     -1.62323290      3.29021068
    H      1.29280241     -3.24711202      2.83743128
    C      3.06980168     -2.53750234      1.86082590
    N      4.10729507     -2.70297547      1.40156816
    C      0.59012106      3.52511331      1.53095938
    H      0.98799970      4.44858904      1.16519259
    H      0.74106346      2.75763402      0.80082856
    H      1.08863825      3.25667517      2.43888044
    C     -0.91726578      3.68694561      1.80150556
    N     -2.03958380      3.80743711      2.00293948
    C     -1.89246845     -3.28902002      0.35752859
    H     -1.51887365     -2.43592618     -0.16930914
    H     -2.33491232     -2.97340756      1.27922881
    H     -2.62902729     -3.78333527     -0.24082966
    C     -0.73328108     -4.25964074      0.65041091
    N      0.12978660     -4.98231199      0.86847511
    C     -0.62155680      0.48911391      3.61871837
    H      0.17393220      0.40869225      2.90764187
    H     -0.21965037      0.74941808      4.57559457
    H     -1.30778317      1.24655812      3.30206283
    C     -1.35725941     -0.85993828      3.72069800
    N     -1.90502345     -1.86436896      3.79662648
    C      3.50440246      0.77461432      0.50323563
    H      2.69026739      0.28571751      0.01022025
    H      4.38418732      0.17090422      0.42316179
    H      3.68079201      1.72474421      0.04384580
    C      3.15604615      0.97967509      1.98923629
    N      2.89667904      1.13235215      3.09563133
    C     -1.72675920     -0.73491348     -3.13235728
    H     -2.31170599     -0.45829006     -2.28017367
    H     -2.22824012     -0.42454776     -4.02515575
    H     -0.76958626     -0.25983725     -3.07738804
    C     -1.54072863     -2.26349643     -3.15301692
    N     -1.40222042     -3.40159591     -3.16839896
    C     -3.58115775      0.41445376      1.12908913
    H     -4.29951314      0.50059088      1.91740767
    H     -2.94364697      1.27379686      1.13201160
    H     -2.99264310     -0.46674415      1.27754737
    C     -4.31182439      0.32193514     -0.22337771
    N     -4.85583892      0.25305081     -1.23035075
    C     -1.85092308      2.94250848     -1.65148266
    H     -0.92345587      3.13148130     -1.15248966
    H     -2.27144714      2.02806624     -1.28836561
    H     -2.52924905      3.74765923     -1.46041916
    C     -1.60425952      2.82782675     -3.16726800
    N     -1.42060728      2.74244099     -4.29583908
   Cl     -0.20560290      0.14233062     -0.00537609
