61
Energy:   -385.11104873
    C      0.15383524      2.79324125     -2.14106692
    H      0.72448413      3.10107806     -2.99224054
    H     -0.39627043      1.90761843     -2.38180553
    H      0.81366181      2.59197059     -1.32313165
    C     -0.82539042      3.91450247     -1.74674422
    N     -1.55446843      4.74933241     -1.45315305
    C      3.23225182      0.65233885     -1.60654723
    H      2.18608617      0.42879305     -1.62810841
    H      3.67019580      0.40099062     -2.54990730
    H      3.37006675      1.69620399     -1.41614844
    C      3.90928711     -0.16655569     -0.49181185
    N      4.41337065     -0.77625990      0.33815931
    C      2.02285500     -2.91507440     -1.81907244
    H      2.58583948     -2.38637710     -2.55963157
    H      2.66961065     -3.58197594     -1.28817833
    H      1.59053926     -2.21640797     -1.13360369
    C      0.90394306     -3.72172242     -2.50387535
    N      0.07086225     -4.32230854     -3.01374224
    C     -1.00908426      3.45508724      1.75952896
    H     -2.07304614      3.56456159      1.72951754
    H     -0.71818950      2.62802628      1.14613717
    H     -0.54811038      4.34916191      1.39479255
    C     -0.55990253      3.20107591      3.21049899
    N     -0.22546631      3.01195293      4.29081212
    C     -1.67440372     -3.36412740      0.04681556
    H     -1.92879208     -4.26750906     -0.46707968
    H     -0.64340722     -3.13465140     -0.12431618
    H     -2.28328080     -2.56311536     -0.31725517
    C     -1.91581149     -3.54706590      1.55673469
    N     -2.09555055     -3.68327193      2.68093812
    C      2.35486211      1.41179676      2.46556648
    H      2.35863531      1.81277547      3.45758564
    H      3.16886915      0.72620091      2.35488696
    H      1.43141969      0.90019344      2.29116685
    C      2.50693695      2.55776108      1.44809950
    N      2.62016358      3.41098360      0.69054910
    C      1.62141222     -2.32397698      2.27959006
    H      2.17185485     -2.32534881      3.19714726
    H      0.60107553     -2.06867869      2.47614772
    H      2.04617305     -1.60562660      1.60992593
    C      1.68637045     -3.72333132      1.63991212
    N      1.73473481     -4.76521423      1.16364282
    C     -1.05899624     -0.89434434     -3.65147163
    H     -1.73670014     -0.32662253     -4.25422329
    H     -1.20414616     -0.64570800     -2.62093266
    H     -1.24239415     -1.93859905     -3.79568120
    C      0.38925661     -0.56634305     -4.05961234
    N      1.46754669     -0.32213118     -4.36349164
    C     -1.96134713     -0.25474338      3.33206632
    H     -1.12251705      0.27358225      3.73472784
    H     -1.66889083     -0.75651438      2.43340384
    H     -2.30624231     -0.97345560      4.04578837
    C     -3.09316463      0.74144790      3.01871018
    N     -3.93585421      1.48315760      2.78540228
    C     -3.39728605      1.37878815     -0.62789719
    H     -4.31138564      1.73644726     -0.20198398
    H     -2.58201632      1.97521822     -0.27504376
    H     -3.24441212      0.35964556     -0.34001345
    C     -3.47506921      1.47241657     -2.16307910
    N     -3.53298231      1.54212719     -3.30609181
   Cl     -0.15162142     -0.09141642      0.03868760
