61
Energy:   -384.99605856
    C      1.99768813      3.08460147      0.28176491
    H      2.51603913      2.20320962     -0.03345060
    H      2.45281250      3.94451447     -0.16355580
    H      0.97388451      3.02462653     -0.02340428
    C      2.07012333      3.20183427      1.81558681
    N      2.12405463      3.28911942      2.95758693
    C      1.17036422      0.30694080     -3.68854397
    H      0.21569072      0.55933088     -3.27647851
    H      1.48773943     -0.63832783     -3.30042120
    H      1.09447048      0.24763596     -4.75419971
    C      2.19682943      1.38952452     -3.30646852
    N      2.96107944      2.19555731     -3.02199598
    C     -0.26810945     -2.92187439     -2.33761483
    H      0.45333543     -2.42604350     -1.72233505
    H     -0.66187773     -2.23065058     -3.05319521
    H      0.19944276     -3.73714918     -2.84910387
    C     -1.41264650     -3.45696047     -1.45709350
    N     -2.26480636     -3.85535638     -0.80150535
    C     -1.61221696      2.54337379      2.18105783
    H     -1.41182683      3.58332526      2.02859497
    H     -0.79977047      1.96336806      1.79580060
    H     -1.72279160      2.35117028      3.22782913
    C     -2.91080206      2.15802446      1.44840331
    N     -3.87765769      1.87111437      0.90290872
    C      1.33642886     -3.37029483      1.10810572
    H      1.09421953     -4.16188276      0.43015043
    H      2.38920972     -3.37402051      1.29925402
    H      1.05565294     -2.43243141      0.67627684
    C      0.57391786     -3.57546036      2.43025703
    N      0.00619376     -3.72821543      3.41465877
    C      1.15641901     -0.05900354      3.50151175
    H      1.30772704      0.84742478      4.04959365
    H      0.58677024     -0.74356929      4.09461301
    H      0.62679619      0.15539469      2.59683934
    C      2.52078032     -0.68689407      3.16111244
    N      3.53660933     -1.15438712      2.90766968
    C      3.75498117     -0.54452420     -0.45548966
    H      3.95160028      0.31975418     -1.05487600
    H      4.60847521     -0.75787999      0.15354755
    H      2.90739394     -0.35901476      0.17067424
    C      3.46349472     -1.74836321     -1.37058926
    N      3.24646980     -2.64467608     -2.05192251
    C     -3.49209877     -0.47757111     -1.55896296
    H     -4.32014196      0.18806946     -1.43181229
    H     -2.74272456     -0.25846055     -0.82730188
    H     -3.82439640     -1.48742093     -1.43779896
    C     -2.90061303     -0.29752219     -2.96939800
    N     -2.46022500     -0.16346758     -4.01953100
    C     -2.48556993     -1.68472078      1.98393795
    H     -3.30766753     -1.33322225      1.39614164
    H     -2.63517252     -2.71628993      2.22556422
    H     -1.57769645     -1.57663086      1.42807700
    C     -2.39370703     -0.86149467      3.28219062
    N     -2.32531093     -0.24856542      4.24879874
    C     -1.48242091      2.92437135     -1.94793687
    H     -2.01020942      2.17234307     -1.39949095
    H     -0.49754892      2.57403425     -2.17638860
    H     -2.00552713      3.13596447     -2.85705035
    C     -1.38739731      4.20641978     -1.10004399
    N     -1.31664793      5.16096311     -0.46874921
   Cl      0.07088734      0.11033557     -0.28179900
