61
Energy:   -384.92070780
    C      2.05170391      0.09272123     -3.08491858
    H      2.41898504     -0.67724425     -3.73079621
    H      1.54346128      0.83349968     -3.66615503
    H      1.37272175     -0.33115227     -2.37483860
    C      3.23181194      0.74479089     -2.34077465
    N      4.11045602      1.23028639     -1.78672567
    C     -1.21157984     -2.56925869     -2.49704908
    H     -1.06138451     -1.67094932     -1.93546042
    H     -1.59413312     -3.33299242     -1.85264015
    H     -1.91106882     -2.38432752     -3.28534770
    C      0.12958553     -3.02911048     -3.09822442
    N      1.12814410     -3.37149104     -3.54582679
    C      1.31416882      3.36023718     -0.37932006
    H      0.44829428      3.05301491      0.16911037
    H      1.65426206      4.30479175     -0.00911425
    H      2.08838554      2.63116441     -0.26125035
    C      0.95660689      3.49227511     -1.87140433
    N      0.69038577      3.59058334     -2.98232888
    C     -0.29375524      2.30860930      3.25010540
    H     -0.50789134      3.30786328      2.93302907
    H      0.27668819      1.80932421      2.49498437
    H      0.26693883      2.33589182      4.16102632
    C     -1.61355413      1.54976007      3.48222334
    N     -2.59620439      0.98476232      3.65504570
    C      1.99360208     -3.31294500     -0.06188857
    H      1.86642679     -2.25154430     -0.10831258
    H      2.32563113     -3.67430663     -1.01271641
    H      2.72157562     -3.55261949      0.68477718
    C      0.65102568     -3.97552702      0.29876872
    N     -0.34858347     -4.46884945      0.56729446
    C      0.29691731     -1.80939628      3.33335340
    H     -0.65963627     -1.42350887      3.04875484
    H      0.17054993     -2.75663063      3.81468224
    H      0.90623889     -1.93047764      2.46216708
    C      0.97854759     -0.82720790      4.30406765
    N      1.48605231     -0.09592401      5.02680854
    C      3.39542253      0.39578555      1.63540337
    H      2.62728390      0.81043863      2.25421355
    H      3.03851631      0.31475845      0.62994245
    H      4.25480425      1.03282975      1.65857336
    C      3.77777954     -1.00125636      2.15854485
    N      4.06246171     -2.04141757      2.54804745
    C     -1.78086802      1.25562533     -3.00224260
    H     -1.90356384      2.28784804     -3.25593966
    H     -0.99357723      1.15588622     -2.28452093
    H     -2.69230608      0.87976608     -2.58641863
    C     -1.42559788      0.45450093     -4.26856911
    N     -1.16108311     -0.14197259     -5.21140676
    C     -2.90604095     -1.75995907      0.99871073
    H     -2.00169360     -2.24194545      0.69090366
    H     -3.51018824     -2.45204578      1.54727352
    H     -2.66972538     -0.92191127      1.62058686
    C     -3.67822376     -1.27633300     -0.24283651
    N     -4.25314896     -0.91625141     -1.16722485
    C     -3.16599078      2.20372545      0.27699723
    H     -2.44169659      1.46149172      0.01358272
    H     -3.84945960      2.33913912     -0.53505732
    H     -3.70310831      1.88537745      1.14593819
    C     -2.45169977      3.53527823      0.57424384
    N     -1.91987765      4.52667981      0.79555745
   Cl      0.07020535      0.02984912      0.20459119
