61
Energy:   -386.00731829
    C      2.67622725      2.51067796     -0.15931019
    H      3.10981550      1.55661367     -0.37532576
    H      1.94179030      2.40244067      0.61126502
    H      3.44060603      3.18384402      0.16851848
    C      2.00908924      3.07074324     -1.42929198
    N      1.51237467      3.48773729     -2.37485116
    C      1.64924432     -0.14942349     -3.36574452
    H      1.59188089      0.86992899     -3.68594778
    H      0.83527614     -0.36191492     -2.70453177
    H      1.59445893     -0.79450413     -4.21766506
    C      2.98216287     -0.38226677     -2.63041319
    N      3.97458131     -0.55562918     -2.08292560
    C      1.17649883     -3.33962372     -0.98483744
    H      0.29272682     -3.13608371     -0.41701821
    H      1.85793835     -2.52013575     -0.89008116
    H      1.63867194     -4.23209043     -0.61768857
    C      0.80252194     -3.52753469     -2.46687346
    N      0.52407914     -3.66744294     -3.57031664
    C     -1.55826910      3.47500708      0.50623081
    H     -1.88833283      4.01929483     -0.35383254
    H     -2.35597275      3.41266903      1.21664051
    H     -1.26394672      2.48896200      0.21299279
    C     -0.35872919      4.20052886      1.14366485
    N      0.53438279      4.74071281      1.61826346
    C     -0.52922647     -2.93094672      2.49478003
    H     -1.38804607     -3.46871533      2.83848630
    H      0.17671550     -3.61686069      2.07517658
    H     -0.82623206     -2.22381953      1.74868493
    C      0.11827023     -2.18749179      3.67783658
    N      0.60036096     -1.63395580      4.55867595
    C      0.47327471      1.60196321      3.61191337
    H      0.86497514      1.26455723      4.54873147
    H      1.02393104      2.45829757      3.28272019
    H      0.56149697      0.82060950      2.88623968
    C     -1.00999136      1.97966018      3.78181567
    N     -2.11435036      2.26087275      3.90831565
    C      3.25298092     -1.09582594      1.66907716
    H      4.19928867     -0.75829330      2.03714444
    H      2.46675664     -0.61645772      2.21401439
    H      3.16687300     -0.85268524      0.63063259
    C      3.14651122     -2.62149610      1.84961738
    N      3.06723968     -3.75742688      1.98403779
    C     -2.29697090     -1.72028876     -2.21381105
    H     -3.09472601     -1.01414820     -2.31307071
    H     -2.21044236     -2.28973931     -3.11555268
    H     -1.38023750     -1.19944769     -2.03153776
    C     -2.59274763     -2.66664365     -1.03545264
    N     -2.81296685     -3.37124789     -0.15811124
    C     -3.21998668     -0.14334198      1.67317512
    H     -3.31957685     -1.20457866      1.57958718
    H     -3.76945442      0.19247626      2.52769861
    H     -2.18691676      0.10886862      1.79173082
    C     -3.77267787      0.53772476      0.40736292
    N     -4.18418159      1.04480991     -0.53509180
    C     -1.53526257      2.00157280     -2.82612218
    H     -0.88819549      1.50519031     -2.13343985
    H     -2.51953218      2.06601385     -2.41144186
    H     -1.16393272      2.98653540     -3.01811678
    C     -1.58438045      1.20563434     -4.14357024
    N     -1.62095095      0.61302197     -5.12447020
   Cl      0.18323475     -0.02690822      0.13141326
