61
Energy:   -385.40603955
    C      2.83246566      1.00927280     -2.25789158
    H      3.00565858      0.25003849     -2.99169513
    H      2.47411134      0.55854511     -1.35604579
    H      3.74692654      1.52784020     -2.05852197
    C      1.78281770      2.00436597     -2.78669093
    N      1.00130709      2.74525807     -3.18040609
    C     -2.04300841      2.60835461     -1.45787557
    H     -2.73927253      2.01126540     -2.00887551
    H     -1.14499514      2.04988473     -1.29483372
    H     -1.81603394      3.49473573     -2.01259188
    C     -2.66005104      2.99577035     -0.10112673
    N     -3.11946732      3.28421898      0.90903446
    C     -0.89174544      1.41617264      3.27591449
    H     -1.58472111      1.44414858      4.09071646
    H     -0.50777536      0.42326713      3.16818923
    H     -1.38959969      1.70583966      2.37417548
    C      0.26953165      2.38804765      3.55608320
    N      1.13415522      3.11165276      3.76468153
    C      3.31101573      0.91920178      1.95402242
    H      3.77799191      1.80026912      2.34203501
    H      3.02167333      0.28270476      2.76399255
    H      2.44471293      1.19391581      1.38926516
    C      4.30218606      0.17181917      1.04264949
    N      5.04015742     -0.38464115      0.36409092
    C     -3.57370175     -0.44774319      1.08062408
    H     -4.07890567     -1.27635488      1.53125901
    H     -3.95052943      0.46576065      1.49100284
    H     -2.52428118     -0.52055110      1.27636516
    C     -3.81461716     -0.46513549     -0.44031552
    N     -3.99398963     -0.47808485     -1.57272419
    C      0.99303839      3.80535785      0.30926512
    H      0.67494823      2.79644181      0.46991155
    H      0.50237471      4.20061212     -0.55555990
    H      0.74260458      4.39863803      1.16378289
    C      2.51747951      3.83469213      0.09288870
    N      3.65249522      3.85653284     -0.06821338
    C     -1.04965604     -0.26545639     -3.45406479
    H     -1.92379726     -0.66155473     -3.92722800
    H     -0.89974154      0.74553662     -3.77079473
    H     -1.17625561     -0.29140504     -2.39189799
    C      0.17489996     -1.11309992     -3.84593600
    N      1.08663756     -1.74420906     -4.13770193
    C     -0.51925694     -3.03414068      2.47999243
    H      0.49231565     -2.94477652      2.81709053
    H     -0.61545293     -2.57970904      1.51607474
    H     -0.78324200     -4.06898692      2.41438566
    C     -1.45677549     -2.32739389      3.47657055
    N     -2.15480066     -1.80118878      4.21856825
    C     -1.67587651     -3.28807008     -1.39376169
    H     -1.01535119     -2.53857086     -1.01054189
    H     -2.24157581     -2.88306048     -2.20668888
    H     -1.10453051     -4.12446295     -1.73859469
    C     -2.63466793     -3.74592003     -0.27900054
    N     -3.34853172     -4.08681013      0.55098981
    C      2.47281352     -2.61393576     -0.76478937
    H      1.92122533     -2.10857929     -1.52981584
    H      3.44892713     -2.85641656     -1.12989809
    H      2.56002869     -1.97797698      0.09127665
    C      1.73628829     -3.90758777     -0.37033394
    N      1.18791179     -4.87077049     -0.07664394
   Cl      0.12350723     -0.09356857      0.19616182
