61
Energy:   -384.78404381
    C      0.28105390      1.07445074     -3.75726939
    H      0.19382820      0.13244624     -4.25718876
    H     -0.27551704      1.81516297     -4.29250137
    H     -0.10483007      0.98768428     -2.76305400
    C      1.76302688      1.48904070     -3.69835210
    N      2.86642312      1.79772178     -3.65448549
    C      2.49674067     -1.58879032     -2.07810624
    H      1.51365203     -1.32949941     -2.41158055
    H      3.21034764     -1.32070971     -2.82897039
    H      2.71670401     -1.06242277     -1.17287012
    C      2.56801020     -3.10538955     -1.82033228
    N      2.62107360     -4.23456662     -1.62840785
    C      2.25543265     -2.68102600      1.71255147
    H      2.57131244     -2.35337131      2.68093288
    H      1.87967568     -1.84626597      1.15858262
    H      3.08654658     -3.10935405      1.19227864
    C      1.14542630     -3.73756390      1.86491141
    N      0.31897612     -4.52420440      1.97835032
    C     -2.51739341      1.57605728      2.06284886
    H     -2.89578067      1.51442669      3.06181079
    H     -1.47730912      1.82580959      2.09019014
    H     -2.64494664      0.63268478      1.57430246
    C     -3.28616256      2.66305577      1.28887969
    N     -3.85854613      3.47237556      0.71262446
    C     -2.18847864     -2.24931192      2.34554418
    H     -3.17793286     -1.97046988      2.04868116
    H     -2.14712162     -3.30738194      2.49941600
    H     -1.49493125     -1.97298611      1.57903577
    C     -1.82211657     -1.52550747      3.65454607
    N     -1.54934336     -0.98660215      4.62915747
    C      3.13517548      1.98845541     -0.19373724
    H      2.75933675      2.78195327      0.41782353
    H      2.32820191      1.54588944     -0.73947355
    H      3.85801193      2.37843200     -0.87953956
    C      3.79719804      0.92209915      0.69856901
    N      4.29010393      0.12814844      1.36293158
    C      1.24081199      0.70694425      3.43241397
    H      0.50824904      0.20121914      2.83870207
    H      0.99064904      0.60812003      4.46805453
    H      2.20357084      0.27496285      3.25525146
    C      1.26954965      2.19877629      3.05134796
    N      1.29094614      3.30951305      2.76762699
    C     -3.04579457      0.65390400     -1.89271000
    H     -3.75868400      1.26434375     -2.40657006
    H     -2.46319515      0.10887644     -2.60574715
    H     -2.40167996      1.27491783     -1.30589037
    C     -3.78531922     -0.33403812     -0.97147513
    N     -4.33592893     -1.06960593     -0.28557390
    C     -1.15089258     -3.23888643     -1.21329637
    H     -0.27892630     -2.92590802     -0.67792781
    H     -1.18217116     -4.30778799     -1.25031229
    H     -2.02502732     -2.87349461     -0.71602747
    C     -1.10275375     -2.67681221     -2.64624970
    N     -1.06691220     -2.25832241     -3.71314858
    C     -0.31319048      3.87739398     -0.27503541
    H     -0.95518938      4.42222484      0.38518949
    H      0.65200241      4.33879603     -0.29528220
    H     -0.21930197      2.86903109      0.07034599
    C     -0.91347855      3.88045959     -1.69321905
    N     -1.36042030      3.88274207     -2.74912123
   Cl     -0.01276141     -0.00784008     -0.00944532
