61
Energy:   -385.76049901
    C      3.26037130      1.53749462     -1.14575528
    H      3.08066960      1.49457162     -0.09182687
    H      4.28474541      1.29939328     -1.34289617
    H      2.62808112      0.83287173     -1.64436817
    C      2.95469911      2.95609233     -1.66125992
    N      2.72711227      4.01230281     -2.04507655
    C      2.16328187     -1.83194392     -2.81276460
    H      2.63428073     -1.24534475     -3.57365990
    H      1.35359977     -1.27812633     -2.38544730
    H      1.78867818     -2.73789385     -3.24151379
    C      3.18988368     -2.16940146     -1.71558132
    N      3.95423538     -2.42065393     -0.89867850
    C      0.37897495     -3.58071746      0.33655530
    H      1.36381369     -3.17432919      0.43575922
    H      0.22147268     -4.32241187      1.09152651
    H     -0.34257062     -2.79863198      0.44886464
    C      0.22671486     -4.22374687     -1.05446233
    N      0.11335030     -4.70251149     -2.09013818
    C      0.28588045      3.86417180      0.61034554
    H      0.66797283      4.42504240     -0.21689672
    H     -0.42030239      4.46027793      1.14966212
    H     -0.19601702      2.97964718      0.24938831
    C      1.44590261      3.47204371      1.54425353
    N      2.30959185      3.18008653      2.23959048
    C     -1.97582581     -1.75805160     -2.69730253
    H     -1.71277738     -2.56547656     -3.34827921
    H     -1.08592928     -1.28113118     -2.34300018
    H     -2.57204119     -1.04849764     -3.23205435
    C     -2.77710168     -2.30360038     -1.50066829
    N     -3.37368798     -2.70978624     -0.60971970
    C     -0.50343094      1.20169585      3.62576128
    H     -0.89465330      0.64374808      4.45070948
    H      0.46155084      1.58692091      3.88132129
    H     -0.41769388      0.56282998      2.77171290
    C     -1.45261458      2.36977882      3.29982784
    N     -2.15932494      3.23946969      3.05715558
    C      2.73509809     -0.62841649      2.15812885
    H      3.73689809     -0.61977453      2.53392437
    H      2.34385818      0.36748003      2.16266194
    H      2.73269456     -1.00801266      1.15772890
    C      1.85980574     -1.52786783      3.05056964
    N      1.20811080     -2.19755025      3.71503238
    C     -0.46893572      2.08761976     -3.04266199
    H     -0.00019950      2.64150046     -2.25627614
    H     -1.07397645      1.31225219     -2.62120032
    H     -1.08322526      2.74335165     -3.62366383
    C      0.61136057      1.46263042     -3.94485280
    N      1.41569025      0.99729744     -4.61657487
    C     -2.17989751     -2.03261223      2.55099002
    H     -1.45986571     -2.50848914      3.18344204
    H     -1.67477451     -1.42291114      1.83125782
    H     -2.75759026     -2.77752953      2.04476042
    C     -3.11176050     -1.15309340      3.40520192
    N     -3.80557486     -0.49825165      4.04120152
    C     -3.34197601      1.06394389      0.31395376
    H     -4.18807249      1.35670852      0.89988020
    H     -2.50564594      1.68420332      0.56038702
    H     -3.10133993      0.04205899      0.52070147
    C     -3.67425633      1.22062240     -1.18158682
    N     -3.92165413      1.33727668     -2.29508477
   Cl      0.09433635      0.09138058     -0.08900494
