61
Energy:   -386.83064385
    C      2.43791438      2.80243623     -0.02859669
    H      1.87935837      1.94515025      0.28441466
    H      2.68149013      3.40042749      0.82461864
    H      3.33891367      2.48465645     -0.51038022
    C      1.59448354      3.63299361     -1.01368494
    N      0.96651094      4.25138133     -1.74712792
    C      1.13659842      0.89436523     -3.48243824
    H      1.04249876      1.93418423     -3.71657896
    H      0.40568558      0.62650316     -2.74832966
    H      0.98204325      0.31396244     -4.36795752
    C      2.54644613      0.61866998     -2.92753142
    N      3.59614183      0.41340233     -2.51437807
    C      1.71229747     -2.99726074     -1.62317674
    H      1.39871491     -2.13395626     -1.07429466
    H      2.74912450     -3.18257997     -1.43464141
    H      1.13661131     -3.84471378     -1.31445701
    C      1.49992342     -2.75335335     -3.12883489
    N      1.34180129     -2.57175322     -4.24986582
    C     -0.97382335      3.15664580      1.78239208
    H     -0.73374211      4.19930491      1.77129366
    H     -1.76786411      2.96610054      1.09095093
    H     -0.11162718      2.58909817      1.50060044
    C     -1.41745451      2.74708247      3.19909574
    N     -1.74775808      2.44214395      4.25389601
    C     -0.55983317     -3.32012631      1.42809852
    H      0.35776774     -2.77083780      1.46260774
    H     -1.18214426     -2.92654379      0.65174757
    H     -0.35133781     -4.35075985      1.23004985
    C     -1.28490852     -3.19381367      2.78084049
    N     -1.82476008     -3.09976816      3.78801838
    C      0.59589364     -0.23774105      3.73869725
    H     -0.01888689      0.02754516      4.57330393
    H      1.12511933     -1.14135119      3.95848798
    H     -0.01891383     -0.38543746      2.87550744
    C      1.60389361      0.89354271      3.46350072
    N      2.35439541      1.73583489      3.25860441
    C      3.51464904     -0.62290726      0.73433551
    H      3.80229981      0.19398270      1.36270483
    H      2.63734267     -0.35676313      0.18261101
    H      4.30961472     -0.84669289      0.05400569
    C      3.21915550     -1.85958492      1.60319219
    N      2.99914712     -2.78034766      2.25009547
    C     -2.07048707     -1.65506977     -2.67153702
    H     -2.74137176     -1.63502562     -3.50485097
    H     -1.12496937     -1.24915921     -2.96501954
    H     -2.47681220     -1.07097609     -1.87239151
    C     -1.88094852     -3.10878700     -2.19996373
    N     -1.73982846     -4.19114555     -1.84885598
    C     -3.26394664     -0.29635263      1.99742444
    H     -3.94423104     -0.82279070      2.63380189
    H     -2.40434481     -0.00023067      2.56160133
    H     -2.96069748     -0.93458068      1.19392958
    C     -3.95848302      0.95370394      1.42595457
    N     -4.47559692      1.88442787      1.00046928
    C     -2.24181184      2.38163039     -1.83401514
    H     -2.64310654      1.64685994     -1.16770056
    H     -2.79361241      3.29291997     -1.73418260
    H     -1.21443941      2.55852871     -1.59295089
    C     -2.34871561      1.87297258     -3.28364917
    N     -2.42831032      1.49425372     -4.36296759
   Cl     -0.26106917     -0.01430073      0.00350664
