61
Energy:   -386.93575774
    C      2.73193485      2.59233160     -0.28294914
    H      2.07087760      1.92773225      0.23300743
    H      3.15757192      3.28402089      0.41368427
    H      3.51321768      2.02831493     -0.74811731
    C      1.94629930      3.36510611     -1.35867975
    N      1.36135792      3.94047186     -2.15961008
    C      1.25532651      0.37998494     -3.56583346
    H      1.20907842      1.42641662     -3.78433295
    H      0.49227816      0.12917061     -2.85890455
    H      1.10559821     -0.17922904     -4.46570026
    C      2.63560768      0.03974018     -2.97367014
    N      3.66328975     -0.21358750     -2.53277764
    C      1.14836187     -3.13699784     -1.33648563
    H      0.24653675     -3.04011215     -0.76883715
    H      1.80294183     -2.32201301     -1.10796015
    H      1.62849912     -4.06047515     -1.08837885
    C      0.81317075     -3.12029272     -2.83947194
    N      0.56360572     -3.10785500     -3.95851357
    C     -0.92501036      3.20102075      1.35771178
    H     -0.96724162      4.25005338      1.15119972
    H     -1.52620406      2.67315202      0.64720503
    H      0.08819198      2.86423734      1.28773302
    C     -1.45721434      2.93565019      2.77825302
    N     -1.85346439      2.73806974      3.83591054
    C     -0.51865382     -3.24815386      2.10564625
    H      0.20309758     -4.00945202      2.31635980
    H     -0.02187498     -2.38286296      1.71914716
    H     -1.21849886     -3.61065174      1.38196724
    C     -1.26517411     -2.87609901      3.40020511
    N     -1.82099240     -2.59908727      4.36406303
    C      0.62387052      0.15884642      3.74445303
    H      0.04854772      0.51017743      4.57539850
    H      1.09719001     -0.76513092      4.00355457
    H     -0.02021781      0.00619278      2.90377106
    C      1.69768666      1.20273807      3.38555314
    N      2.49719158      1.97996285      3.11833585
    C      3.58805496     -0.78021543      0.88366969
    H      3.86125696      0.08615346      1.44905964
    H      2.77818184     -0.53737436      0.22790081
    H      4.42735028     -1.10922086      0.30726889
    C      3.15250158     -1.90312872      1.84333577
    N      2.82821229     -2.73918871      2.55785079
    C     -2.50116340     -1.28498487     -2.31448973
    H     -3.24564807     -1.27856381     -3.08299576
    H     -1.52912055     -1.23698755     -2.75915595
    H     -2.64248608     -0.43963935     -1.67392908
    C     -2.62527829     -2.57997462     -1.49035560
    N     -2.71768746     -3.54415334     -0.87675028
    C     -3.16134210     -0.33861185      1.77626366
    H     -3.91182210     -0.77367987      2.40267867
    H     -2.40409898      0.10923364      2.38529269
    H     -2.72320761     -1.09885688      1.16392000
    C     -3.80166322      0.73718458      0.87946329
    N     -4.27841139      1.53816393      0.21175465
    C     -1.77202306      2.59134443     -2.32337246
    H     -2.67139574      2.49529236     -1.75170563
    H     -1.53433664      3.62774336     -2.44287775
    H     -0.97093873      2.09818598     -1.81351195
    C     -1.97265244      1.94772624     -3.70796752
    N     -2.12203012      1.46852324     -4.73886148
   Cl     -0.05703525     -0.01636177     -0.00542234
