61
Energy:   -384.70596285
    C      2.87508209      2.44793182      0.40263500
    H      3.65977359      2.73443483      1.07127203
    H      3.09509358      1.48761673     -0.01484430
    H      1.94983965      2.40063071      0.93797426
    C      2.76071812      3.48579762     -0.72933473
    N      2.67556894      4.25853587     -1.57213765
    C      1.56455292      1.03405385     -3.25699237
    H      1.79347943      1.94152945     -3.77562603
    H      0.91005902      1.24685652     -2.43769276
    H      1.08624830      0.35098384     -3.92746918
    C      2.86545525      0.40479968     -2.72474025
    N      3.83403616     -0.06370865     -2.32845434
    C      1.64595901     -2.94077614     -1.60470595
    H      1.17478621     -2.50365006     -0.74924282
    H      2.62427723     -2.52438440     -1.72474957
    H      1.72316052     -3.99913021     -1.46749923
    C      0.80493477     -2.64596455     -2.86063761
    N      0.17875399     -2.42646391     -3.79573582
    C     -0.15933135      2.00279065      3.11471222
    H      0.19154200      2.88055262      3.61603247
    H     -0.63730535      2.28204572      2.19903949
    H      0.66805197      1.35818191      2.90301548
    C     -1.16721671      1.26530441      4.01575670
    N     -1.91763318      0.71621239      4.68662527
    C     -1.91934690     -3.27925547     -0.48992288
    H     -2.56660275     -3.42444456     -1.32949431
    H     -1.13265610     -4.00403789     -0.51651452
    H     -1.49968273     -2.29576378     -0.52897640
    C     -2.72403314     -3.44263994      0.81291463
    N     -3.32315861     -3.56428711      1.78293637
    C     -0.19667089     -2.03396809      3.04069150
    H     -0.93089320     -1.56962515      2.41602885
    H      0.53684980     -1.30979405      3.32777763
    H     -0.67034366     -2.42797544      3.91550085
    C      0.48607484     -3.17747005      2.26747644
    N      0.99441007     -4.02885924      1.69178268
    C      3.49673910     -1.29748874      1.12366413
    H      2.88702278     -0.88447179      0.34741469
    H      3.20616211     -2.31134621      1.30410012
    H      4.52354856     -1.26867207      0.82411278
    C      3.31465006     -0.47420057      2.41232241
    N      3.17907650      0.13877489      3.37178708
    C     -2.22683337      0.23843288     -2.60007994
    H     -2.39021251      0.74399970     -3.52884774
    H     -1.37945099     -0.40861771     -2.69045536
    H     -2.04545667      0.95811618     -1.82932867
    C     -3.47233582     -0.59374370     -2.24258058
    N     -4.39966901     -1.21333699     -1.97640606
    C     -3.47397940      0.03278366      1.35735503
    H     -4.37439763     -0.34002844      0.91558774
    H     -3.44280870     -0.24326450      2.39066277
    H     -2.62885983     -0.38468457      0.85100311
    C     -3.43925314      1.56750232      1.23474702
    N     -3.41339785      2.71017012      1.14345978
    C     -0.84348161      3.78144375     -0.96007878
    H     -1.77736840      4.12006939     -0.56247554
    H     -0.08307166      4.50412804     -0.74935806
    H     -0.58193019      2.84680675     -0.50958614
    C     -0.97024340      3.59912912     -2.48398587
    N     -1.06462331      3.46338759     -3.61860397
   Cl      0.14634150      0.07905095      0.10816890
