61
Energy:   -384.73904744
    C      1.84375291      2.65643764     -1.71611414
    H      2.24099886      2.07652727     -0.90939250
    H      2.64690551      3.10843551     -2.25975272
    H      1.28351482      2.02119750     -2.36995078
    C      0.92239874      3.75480889     -1.15372008
    N      0.23640868      4.57259622     -0.73499214
    C      3.63192180     -0.76258666     -1.19812361
    H      4.16796083     -0.26289796     -0.41846115
    H      3.94019788     -1.78620997     -1.24351394
    H      2.58217888     -0.71484468     -0.99648134
    C      3.92758482     -0.07722406     -2.54514308
    N      4.14771937      0.43305956     -3.54806031
    C      0.57354636     -1.05265867     -3.49252494
    H      0.75496851     -0.61322457     -4.45110923
    H      1.27782331     -1.83994551     -3.32201839
    H      0.68086805     -0.30728324     -2.73239559
    C     -0.85566383     -1.62479518     -3.45230004
    N     -1.91977578     -2.05077682     -3.42235078
    C     -1.42059937     -0.99876892      3.54662642
    H     -0.79109507     -1.39946813      4.31348017
    H     -2.03113000     -0.22140723      3.95633393
    H     -0.81472953     -0.59941728      2.76028102
    C     -2.31990852     -2.11565113      2.98500631
    N     -2.98948507     -2.94722071      2.56685460
    C     -3.67722256     -1.23851920     -0.34826897
    H     -4.16962216     -2.01705906      0.19608248
    H     -2.68395779     -1.11261735      0.02918687
    H     -3.63434072     -1.50024166     -1.38487960
    C     -4.45981320      0.07747872     -0.18303770
    N     -5.04248750      1.05729899     -0.06001551
    C      2.65105016     -1.94967013      2.02963853
    H      2.05331028     -1.18063630      1.58670042
    H      3.02178327     -2.59873561      1.26402109
    H      3.47378907     -1.50634707      2.55066103
    C      1.79363968     -2.76039016      3.01917394
    N      1.15525860     -3.36400806      3.75592802
    C      1.57125897      2.23366406      2.44347659
    H      0.97180615      1.40961222      2.76981241
    H      1.11736141      2.68805846      1.58767180
    H      1.64716350      2.95359769      3.23140626
    C      2.97805281      1.72952729      2.07148571
    N      4.02547476      1.35417455      1.79452160
    C     -0.51278784     -3.42766456     -0.05903869
    H     -0.42441458     -2.80800282      0.80878023
    H     -0.91658968     -4.37814736      0.22100702
    H     -1.16313155     -2.95859858     -0.76750835
    C      0.87720478     -3.62663424     -0.69144012
    N      1.91211748     -3.77477621     -1.16229173
    C     -2.27723462      2.68425773      1.43391561
    H     -2.35218960      1.68541552      1.05762293
    H     -1.51793026      3.21212762      0.89566906
    H     -3.21531345      3.18365151      1.30936422
    C     -1.91205325      2.64335197      2.92943200
    N     -1.64015912      2.61289577      4.04291194
    C     -2.17019192      1.81862881     -2.32539921
    H     -1.73607793      2.40253645     -1.54086298
    H     -2.16380587      0.78562463     -2.04654322
    H     -3.17816519      2.13710068     -2.49112386
    C     -1.35345323      2.00663104     -3.61737176
    N     -0.74535415      2.14660725     -4.57930405
   Cl     -0.01933689      0.13112552      0.06643835
