61
Energy:   -385.01482016
    C      3.31371782      1.67530736     -0.14991838
    H      3.04047638      2.63269829      0.24205342
    H      4.33493108      1.46848867      0.09349194
    H      2.68550371      0.92220952      0.27797153
    C      3.14135591      1.67894233     -1.68023801
    N      3.01302464      1.68164874     -2.81963053
    C      2.49326979     -1.88505013     -2.11938060
    H      3.51275220     -1.58583964     -1.99277538
    H      1.85865459     -1.23971810     -1.54867121
    H      2.22875320     -1.82137945     -3.15421204
    C      2.32005456     -3.33612603     -1.63360781
    N      2.19108794     -4.41651800     -1.27192788
    C     -0.13175259      0.29364639     -3.72283473
    H      0.47841727      0.38539692     -2.84866383
    H     -0.91483870      1.02203355     -3.68925835
    H      0.46756553      0.45421294     -4.59457738
    C     -0.74545363     -1.11783714     -3.77465456
    N     -1.20238196     -2.16875078     -3.81323679
    C     -2.82042738      2.28626103      1.22822105
    H     -3.62636399      2.90974631      0.90167477
    H     -2.96426424      1.29338543      0.85618868
    H     -1.89538744      2.67561750      0.85727395
    C     -2.78482951      2.25752468      2.76754136
    N     -2.75832527      2.23612916      3.91363530
    C     -1.08956875     -3.41030383     -0.48466133
    H     -0.47155156     -2.57099602     -0.72656487
    H     -2.11825458     -3.11816293     -0.52151589
    H     -0.91639666     -4.19586993     -1.19020823
    C     -0.74775067     -3.90811713      0.93200458
    N     -0.49325158     -4.27876176      1.98677675
    C      2.37849018     -2.12346848      1.96794320
    H      2.17560776     -3.16158628      1.80654203
    H      1.56046842     -1.53902951      1.60165015
    H      2.50482935     -1.94334120      3.01507818
    C      3.66599736     -1.72975802      1.22033546
    N      4.62460498     -1.43662270      0.66370751
    C      0.84480756      2.05787528      2.91795932
    H      0.60860104      2.88132843      3.55907677
    H      0.01352244      1.38523021      2.88037276
    H      1.05456913      2.42101087      1.93356523
    C      2.07929987      1.31817930      3.46611861
    N      2.99843550      0.76744201      3.87424811
    C     -3.54937312     -0.53543548     -1.53609354
    H     -3.50019124     -1.26110116     -2.32088054
    H     -4.46863941     -0.65074722     -1.00078822
    H     -2.72668460     -0.67753885     -0.86684820
    C     -3.48115836      0.87946848     -2.14024048
    N     -3.43036936      1.93292879     -2.59005535
    C     -1.64152158     -1.25116772      3.16646739
    H     -0.81655263     -1.09608466      2.50293468
    H     -1.49536897     -2.16072610      3.71074863
    H     -1.70692964     -0.43202031      3.85175449
    C     -2.94507427     -1.34424735      2.35179779
    N     -3.91562850     -1.41354937      1.74523924
    C     -0.25065309      3.43491912     -1.75474585
    H     -0.76081324      4.15762141     -2.35669120
    H     -0.95437802      2.71978369     -1.38292381
    H      0.48721090      2.93475532     -2.34660055
    C      0.43446266      4.14389176     -0.57170983
    N      0.94456248      4.67175412      0.30911425
   Cl     -0.13089970      0.23041771      0.00262825
