61
Energy:   -384.70943170
    C      2.53709125      2.33457826     -0.54872302
    H      2.08780112      1.79502596     -1.35613981
    H      2.20960229      1.92131425      0.38233173
    H      3.60213762      2.25840394     -0.61780835
    C      2.12220109      3.81555818     -0.62723815
    N      1.81329652      4.91821505     -0.68569624
    C      1.85550338     -0.40179424     -3.51380185
    H      2.12668175      0.42461350     -4.13702951
    H      1.05117372     -0.11382331     -2.86957702
    H      1.54591892     -1.22330915     -4.12549606
    C      3.06841504     -0.82329988     -2.66363816
    N      3.97148291     -1.13712998     -2.03065265
    C      1.45152898     -3.56148381     -0.78446694
    H      2.50390895     -3.52545685     -0.59447052
    H      1.01985422     -4.37977349     -0.24691882
    H      0.99966670     -2.64610602     -0.46383776
    C      1.20852094     -3.75307033     -2.29305625
    N      1.02759041     -3.89571521     -3.41626956
    C     -0.72061178      3.68668631      1.44822986
    H      0.16271290      4.22052802      1.73045446
    H     -1.28300371      4.27125947      0.75045582
    H     -0.44605766      2.75707787      0.99507727
    C     -1.57766924      3.41494570      2.69851365
    N     -2.21578748      3.21262246      3.62940676
    C     -1.17212661     -2.99612446      2.05962521
    H     -0.85898329     -2.96418161      3.08227916
    H     -0.59135601     -2.30353679      1.48697618
    H     -1.03102166     -3.98423380      1.67410166
    C     -2.66178274     -2.61676731      1.96682010
    N     -3.77089943     -2.33431867      1.89772248
    C     -0.13849936      0.28503275      3.56736569
    H     -0.80740119      0.73367786      4.27177189
    H      0.19022380     -0.66218120      3.94103118
    H     -0.64412458      0.14460619      2.63488372
    C      1.07882813      1.20471012      3.35782493
    N      1.98518378      1.88945172      3.20181232
    C      3.21383440     -0.88834326      1.26358104
    H      3.50057488      0.00758130      1.77348226
    H      2.50790774     -0.65111159      0.49527916
    H      4.07845433     -1.34189468      0.82583387
    C      2.57274164     -1.86646791      2.26551529
    N      2.09541893     -2.59472617      3.01150088
    C     -2.34089718     -2.45816716     -1.89855224
    H     -3.08194405     -2.52226432     -2.66773445
    H     -1.42728134     -2.08670597     -2.31354834
    H     -2.67996482     -1.79416937     -1.13106337
    C     -2.10126313     -3.85620456     -1.29882983
    N     -1.92284470     -4.89710695     -0.85230925
    C     -3.56854975      0.88574386      0.83516055
    H     -4.46498744      0.64484822      1.36739071
    H     -2.75075104      0.94548016      1.52257304
    H     -3.36947004      0.12528881      0.10923047
    C     -3.74189468      2.24096709      0.12458224
    N     -3.87095785      3.24999239     -0.40447561
    C     -1.07115014      2.79519149     -2.40680805
    H     -1.78404448      3.56594836     -2.61324375
    H     -0.66291967      2.93969640     -1.42835759
    H     -1.55334545      1.84120711     -2.45477247
    C      0.06134089      2.85092318     -3.44890117
    N      0.90453193      2.89241796     -4.22478686
   Cl     -0.24253870      0.00587413     -0.25260991
