41
Energy:  -1095.57984803
O    1.39612728  -3.05172880   0.02326400
H    1.72375729  -2.84248385  -0.85143993
H    1.28721941  -2.20114759   0.44856688
O   -3.50545402   1.31035627  -0.18186850
H   -2.94829389   0.57873118   0.08370479
H   -2.96458621   1.81603011  -0.78848850
O    3.39295306   0.51691659   0.75106025
H    3.09912960   1.42211238   0.64849221
H    2.59389003   0.02527286   0.94084055
O   -1.35097617  -3.03440757  -0.31516325
H   -1.55197465  -2.15812908   0.01342079
H   -0.42261511  -3.15780634  -0.11729882
O    2.10530429  -2.23551837  -2.52567841
H    1.16203691  -2.16812607  -2.67378907
H    2.38315345  -1.33929291  -2.33643883
O    2.14588319   2.79406212  -0.17356751
H    1.31931649   2.52532588   0.22743144
H    2.21093029   2.26372510  -0.96776103
O   -1.50036032   2.58303341  -1.62561625
H   -1.08329899   1.78296221  -1.94526881
H   -1.12660801   2.71700244  -0.75464360
O    0.29187971  -0.82972198   3.57976938
H    0.63333667  -0.78071537   2.68688789
H   -0.61829840  -0.54306340   3.50470598
O   -2.33739022   2.57976296   1.99702410
H   -2.93984158   2.21371517   1.34949555
H   -1.46692595   2.35042126   1.67156105
O    2.64903016   0.43298077  -1.88276610
H    3.01063098   0.32197346  -1.00347430
H    1.70159795   0.36859497  -1.76252250
O   -2.31881447   0.00776896   3.03674685
H   -2.33401343   0.95826664   2.92469770
H   -2.10583136  -0.33292208   2.16795479
O   -0.60486971  -1.92586919  -2.71402606
H   -0.97325357  -2.44176911  -1.99682841
H   -0.41037052  -1.07454737  -2.32204002
S   -0.16712429   0.22868817   0.20301648
O    0.07419589   0.22015959  -1.26728684
O    0.91266704  -0.53613212   0.88799868
O   -0.17068660   1.63420417   0.69759921
O   -1.48467350  -0.40347898   0.49375486
