41
Energy:  -1096.41849386
O    2.94053510  -1.63057536   0.14447003
H    2.39670827  -0.98660303   0.59810410
H    2.31720037  -2.26703677  -0.20567643
O   -2.04524790   0.78860085   3.06120667
H   -1.77656458   1.10275508   2.19787114
H   -2.05462815  -0.16487810   2.97741074
O    2.96055788   0.37173873  -1.75939828
H    2.01597538   0.51626507  -1.70364990
H    3.13986456  -0.29969910  -1.10117932
O    0.83086746  -3.05719636  -0.93276413
H    0.18080070  -2.54677742  -0.44994163
H    0.92968631  -2.59436222  -1.76478050
O    1.23180858  -1.41594135  -3.10701242
H    2.11598593  -1.07394261  -2.97472817
H    0.66972309  -0.83095461  -2.59899444
O    0.39764984   3.60154524   0.62799662
H   -0.21413953   2.86540874   0.62101964
H    1.26042681   3.19743944   0.53555073
O   -1.89991444   0.95624678  -2.83912541
H   -1.05210191   0.83318185  -2.41215845
H   -2.46243610   1.31990609  -2.15534683
O    0.54116495   0.00198763   3.63783993
H    0.89469124   0.04653662   2.74943326
H   -0.28238059   0.48778479   3.59305473
O   -3.48494063   1.32716936  -0.61961461
H   -3.53373952   0.38370208  -0.77362763
H   -2.67749233   1.44729324  -0.11978529
O    2.81126614   2.14099284   0.42772925
H    3.02241412   1.78796886  -0.43657536
H    2.24295194   1.48073526   0.82435344
O   -1.31820406  -1.87828432   2.81991173
H   -0.55384217  -1.43410028   3.18690394
H   -1.22503132  -1.77346181   1.87304166
O   -2.93983659  -1.25101751  -1.48756615
H   -2.25851677  -1.37573346  -0.82689900
H   -2.54318263  -0.66716633  -2.13410717
S   -0.13358294   0.13872277   0.12214330
O    0.26030527   0.35814310  -1.29799993
O    1.08362597   0.14293568   0.98149463
O   -1.05220426   1.22835619   0.55680858
O   -0.82605876  -1.17454390   0.24826992
