41
Energy:  -1099.64508443
O    2.71454008  -2.24148651  -0.11236401
H    3.03534191  -1.53312941   0.44580108
H    1.77246316  -2.08599921  -0.17979260
O   -3.23041522  -1.40915720  -0.67599086
H   -2.71778878  -0.61286092  -0.53685706
H   -2.87473538  -2.03657378  -0.04664824
O    3.47623116   0.20803915   0.93543644
H    3.52265105   0.32620011  -0.01330748
H    2.56462824   0.39847145   1.15667729
O   -1.66121386  -2.60164298   1.35219318
H   -2.02388501  -1.80884579   1.74738188
H   -0.99714562  -2.28290985   0.74092039
O    3.17159253  -0.06416022  -1.78875004
H    3.03754444  -0.95240539  -1.45816952
H    2.30210971   0.33529362  -1.76290256
O    0.78521069   3.48342987  -1.08290099
H    0.88445308   3.49062064  -0.13088677
H    0.78876896   2.55544512  -1.31755711
O   -0.31980191  -0.14542035  -3.69758574
H    0.05185665   0.30094127  -2.93675522
H   -0.67734867  -0.96093732  -3.34641024
O    0.11906815  -1.06083614   3.21840826
H    0.48257899  -0.43922947   2.58777614
H   -0.11854630  -1.82469637   2.69277647
O   -1.78772638   3.17811385  -0.11815519
H   -1.02681368   3.37104112  -0.66589854
H   -1.81695662   2.22228770  -0.07603845
O    0.35521207   3.18808870   1.64472335
H   -0.51499222   3.22267583   1.24750796
H    0.60231650   2.26435602   1.60125866
O   -2.39140566  -0.22635379   2.48220488
H   -1.54598050  -0.32988000   2.91897766
H   -2.17802528   0.16885571   1.63691788
O   -1.26162271  -2.37212481  -2.33898041
H   -2.08722748  -2.05470217  -1.97312322
H   -0.60552273  -2.15122334  -1.67794546
S    0.04222133   0.11627445  -0.08407956
O    0.62173899   0.78357405  -1.28365053
O    0.14834890  -1.36192930  -0.23819185
O    0.78980571   0.54381120   1.13182748
O   -1.39100830   0.49964186   0.05369668
