41
Energy:  -1098.51547230
O    0.54051608  -2.54986792   2.61661143
H   -0.11222676  -1.96536005   2.23124255
H    1.31344723  -1.99875101   2.73940977
O   -0.13433626  -2.80694106  -2.00642306
H   -0.57650576  -2.02091730  -1.68566673
H    0.49716445  -3.02382783  -1.32056679
O    0.87506107  -1.04882712  -3.87139050
H    0.59306262  -1.73067394  -3.26164166
H    0.23455000  -0.34645262  -3.75892954
O   -2.92756500   2.24905178   0.87239515
H   -2.03695506   2.15907467   0.53335252
H   -3.27435637   1.35688789   0.87574058
O    0.89395289   2.57869050  -2.01069201
H    1.56274939   1.89894328  -2.09367879
H    0.43516396   2.36601485  -1.19797211
O    0.05593447   0.86481120   3.60894212
H   -0.33831442   0.29307701   2.95021633
H   -0.09153768   1.75049632   3.27721079
O   -3.45429323  -0.47797962   0.68847103
H   -2.68094545  -0.57988023   1.24325147
H   -3.11754156  -0.53592868  -0.20566099
O    2.31543537  -0.40960742   2.56848581
H    1.63056319   0.09250573   3.01014669
H    2.07471011  -0.38094310   1.64249361
O    2.52621259   0.36547167  -2.17990622
H    2.16180222   0.10833158  -1.33296117
H    2.04331745  -0.15943770  -2.81827467
O   -0.60845331   3.19912856   2.29835482
H   -0.29469094   2.71394325   1.53521641
H   -1.56086042   3.10956185   2.26473405
O   -0.90467846   0.92648488  -3.26870895
H   -0.33571667   1.62427422  -2.94374070
H   -1.09733184   0.39472603  -2.49647255
O    1.63151328  -3.00959652   0.11164674
H    1.63600020  -2.06341616  -0.03310974
H    1.21779429  -3.11943308   0.96780349
S   -0.25596148   0.05447086   0.17202963
O   -1.03172576  -0.48438227  -0.98032755
O   -0.35070404   1.54141746   0.18269072
O   -0.81329455  -0.48783946   1.44300539
O    1.17187844  -0.35131228   0.04274997
