41
Energy:  -1099.75076531
O    3.03546500  -0.36073459   0.10207541
H    2.21354624  -0.84754900   0.04130427
H    2.87786084   0.43973151  -0.39857097
O   -2.09666954  -2.44029266  -2.48871062
H   -2.19045730  -1.87739130  -1.72022005
H   -1.20536817  -2.78384891  -2.42720605
O    1.93131217   0.71738038   2.36604180
H    1.01372576   0.62154491   2.11092893
H    2.41970501   0.25966494   1.68178977
O   -1.25292623  -1.01197375   3.33643123
H   -1.06485980  -0.33333772   2.68811340
H   -0.79242371  -1.78652472   3.01356894
O    2.19474478   2.03740089  -1.06069462
H    1.37990493   1.55043413  -1.18370379
H    2.09601657   2.45864911  -0.20685944
O    1.81674838   3.21926253   1.36985960
H    0.86667573   3.31515276   1.30353550
H    1.94283538   2.38298290   1.81815671
O   -0.55141764  -0.46456734  -3.63011416
H   -0.37871505   0.07282936  -2.85706148
H   -1.26573220  -1.04393433  -3.36493414
O   -0.46750745  -3.17356058   1.77081319
H    0.00415271  -2.62686235   1.14241078
H   -1.39184510  -3.02808799   1.56914642
O   -0.86845095   3.21046381   1.03016764
H   -0.81861997   3.30548596   0.07900019
H   -0.84958362   2.26496958   1.17820997
O   -0.34669163   3.33228867  -1.67992120
H   -0.48037706   2.38641930  -1.61916606
H    0.60393636   3.44217517  -1.65839843
O   -3.07075336  -2.16238940   1.62679874
H   -2.79269824  -1.70092214   0.83561914
H   -2.64769656  -1.68802657   2.34250447
O    0.67528934  -2.63333657  -2.41401048
H    0.47997924  -1.86010450  -2.94334778
H    0.71621298  -2.30516119  -1.51575772
S   -0.51457905  -0.23364173  -0.09414602
O   -0.15850423   0.69800739  -1.20109707
O    0.49877582  -1.32323416  -0.01668490
O   -0.54020853   0.51334136   1.19483009
O   -1.85837930  -0.82268151  -0.35363219
