41
Energy:  -1094.56638784
O    0.03791179  -0.70011973   3.96197665
H   -0.75452830  -0.16521681   3.91561480
H    0.44033679  -0.60824740   3.09835321
O   -1.45281491   0.66542202  -2.97406636
H   -0.72936988   0.77038277  -2.35613240
H   -2.22997975   0.58124697  -2.42165237
O    1.18605066  -2.96967225  -2.58758522
H    1.32160978  -3.16134482  -1.65962121
H    0.27681250  -2.67537897  -2.64152296
O   -3.36305609  -0.22230489  -1.18293398
H   -2.86167583   0.10644659  -0.43676232
H   -2.93205589  -1.04390020  -1.41841610
O    3.10334497  -1.08246857   0.56951710
H    2.99882155  -0.85756325  -0.35499591
H    2.35200374  -0.67637185   1.00172499
O    1.27142369   3.09875360  -0.26301358
H    1.41507699   2.91984399   0.66628021
H    1.03224608   2.25051732  -0.63653885
O   -1.43535302  -2.03075626  -2.46232796
H   -1.11729695  -1.95301259  -1.56286806
H   -1.35721850  -1.14703969  -2.82173284
O    2.45143053  -0.56898604  -2.07173495
H    2.05204914  -1.39800582  -2.33527349
H    1.72230358  -0.04717154  -1.73660010
O   -1.31563601   3.30499366   0.64482112
H   -0.52169319   3.35159665   0.11217225
H   -1.57161489   2.38317490   0.61388827
O    0.54773267   2.51425406   2.48924485
H    0.69762086   1.60902553   2.21661566
H   -0.16913131   2.81716389   1.93194464
O   -1.83173043   1.22885444   3.33462738
H   -1.90813524   0.92210269   2.43113553
H   -1.02038265   1.73656568   3.34789099
O    1.49430816  -3.27044825   0.10806800
H    0.68505294  -2.76011749   0.13807412
H    2.17927232  -2.64888826   0.35448051
S   -0.24195647  -0.05766285   0.27614078
O   -1.52077126   0.59472680   0.67503987
O   -0.49758217  -1.48594554  -0.06262765
O    0.32257219   0.64135008  -0.91246695
O    0.72795537   0.01921727   1.40461784
