41
Energy:  -1096.74594237
O    2.82384973  -2.26849897  -0.45902635
H    3.22830346  -1.41730352  -0.29135008
H    1.88948277  -2.12378164  -0.30987162
O   -3.14433964  -0.85301012  -1.67682040
H   -2.60336595  -0.23995951  -1.17907721
H   -2.67245445  -1.68433633  -1.62729322
O    3.67500156   0.36691985  -0.60843907
H    3.46634631   0.11890624  -1.50909665
H    2.84002016   0.65436848  -0.23910022
O   -0.61456864  -1.85930606   2.36966734
H   -1.40805388  -1.32759431   2.30725223
H   -0.25633143  -1.86092655   1.48203266
O    2.75202191  -0.89132040  -2.87790819
H    2.76918277  -1.58873496  -2.22250734
H    1.91192016  -0.45358644  -2.74061335
O    1.19797116   3.29821082   1.28344533
H    1.27336439   2.47824029   0.79539202
H    1.05691137   3.02572338   2.19013413
O   -1.38431160  -0.73689143  -3.78635520
H   -0.65911631  -0.34352779  -3.30098042
H   -2.14213013  -0.63407193  -3.21070681
O    0.85590670   0.40651492   2.84756998
H    1.08641016   0.58761913   1.93636130
H    0.42358462  -0.44706879   2.82065675
O   -1.46486468   3.05567433   0.66393960
H   -0.53327311   3.26844080   0.71961201
H   -1.49007927   2.19677252   0.24217692
O   -1.25688852   2.07651486   3.18496278
H   -1.38155044   2.44862545   2.31190783
H   -0.51239974   1.48263525   3.08865437
O   -2.60334733  -0.01103098   2.01448763
H   -2.27312389   0.71981286   2.53703102
H   -2.23929069   0.13449973   1.14126634
O   -1.23500296  -2.84774683  -1.95515391
H   -0.68150015  -2.48688425  -1.26259005
H   -1.10110252  -2.26107422  -2.69954478
S    0.14088037   0.03639418  -0.56995709
O    0.42498383   0.16169515  -2.02724392
O    0.25419994  -1.39243968  -0.16290370
O    1.12276292   0.85135957   0.19935305
O   -1.23842522   0.52496169  -0.28903379
