41
Energy:  -1096.69771958
O    2.52666829  -2.62363921  -0.10890585
H    3.01150900  -1.83201748   0.12453873
H    1.60703061  -2.36009146  -0.07664164
O   -3.00768050  -0.47691175  -2.03622267
H   -2.46135749   0.06415952  -1.46613066
H   -2.64622835  -1.35888888  -1.94847000
O    3.71837334  -0.11856714  -0.10521705
H    3.59578715  -0.33752768  -1.02893819
H    2.88779533   0.27639391   0.16007108
O   -1.21789256  -1.79197607   2.23250806
H   -1.88070230  -1.11353457   2.10354208
H   -0.74942627  -1.83139463   1.39871110
O    2.94634063  -1.25105540  -2.49449599
H    2.79052827  -1.94410795  -1.85291005
H    2.15890877  -0.70810350  -2.45726508
O    1.38706624   3.15054638   1.45036712
H    0.89802495   2.98388209   2.25615461
H    1.43659390   2.29753668   1.01891225
O   -0.99213255  -0.56538782  -3.90994600
H   -0.28915935  -0.26678463  -3.33297402
H   -1.79646188  -0.37015637  -3.42914368
O    0.53911094   0.17976542   2.95623599
H    0.91520469   0.34519427   2.09170222
H   -0.02064363  -0.58666654   2.83178233
O   -1.13432650   3.24706913   0.37638964
H   -0.19393584   3.34917368   0.52292262
H   -1.22320497   2.37832755  -0.01555492
O   -1.10894685   2.32802135   2.93863323
H   -1.16102830   2.61131869   2.02580138
H   -0.53876476   1.55942048   2.91921811
O   -2.75927907   0.43072408   1.75692259
H   -2.35849686   1.11044881   2.29875259
H   -2.30487150   0.49446966   0.91687372
O   -1.33567964  -2.68712710  -2.12069960
H   -0.83494356  -2.39730222  -1.35814025
H   -1.03836855  -2.12045851  -2.83254557
S    0.19716987   0.00738622  -0.52265686
O    0.68662725   0.09561804  -1.92720184
O    0.07157994  -1.42430337  -0.12947484
O    1.16384231   0.68844326   0.38387815
O   -1.13337002   0.66978694  -0.41782889
