41
Energy:  -1098.64519355
O    1.44830200  -2.89026369   0.11109545
H    2.03793747  -2.31783397   0.60189692
H    0.59863544  -2.45136566   0.15192563
O   -2.46065191  -1.87179478  -1.82587905
H   -2.05568288  -1.30412965  -2.48161393
H   -1.88934670  -1.80067608  -1.06116712
O    3.07616941  -0.96604298   1.24884632
H    3.51536766  -0.61037081   0.47629596
H    2.26744613  -0.45894258   1.31989336
O   -1.56273356  -1.70068728   2.74877477
H   -0.93096993  -1.10756812   3.15536575
H   -1.33649708  -1.69141489   1.81874094
O    3.93232347   0.20803583  -1.08534622
H    3.39607896   0.98227440  -0.91438336
H    3.34318203  -0.39728454  -1.53560334
O    2.14515504   2.26992194  -0.56550024
H    1.95262401   1.88000845   0.28721960
H    1.58498993   1.79427913  -1.17886050
O   -1.57319355   0.33487041  -3.27601502
H   -2.29579989   0.65750524  -2.73751832
H   -0.80631614   0.38857836  -2.70571129
O   -0.16473465   0.55360696   3.59159470
H    0.31773912   0.56050381   2.76491257
H   -1.03936062   0.86726114   3.36163314
O   -3.52850330   0.64079255  -1.35407354
H   -2.86798149   0.95482105  -0.73655521
H   -3.38609585  -0.30475567  -1.39755387
O   -0.29041125   3.66233195  -0.08033353
H   -0.81633251   2.87553482   0.06315497
H    0.58900671   3.33272826  -0.26531275
O   -2.72397622   0.80763714   2.59202318
H   -2.58194047  -0.13784241   2.63813288
H   -2.35808999   1.06428442   1.74556510
O    2.07841697  -1.47442632  -2.15648672
H    1.41961949  -0.79383325  -2.01860705
H    1.90555624  -2.11840389  -1.46972336
S   -0.25839144   0.17941999   0.04448564
O    0.30516045   0.36997704  -1.32160267
O   -0.74828883  -1.22031499   0.18885506
O    0.80018779   0.44231634   1.05956965
O   -1.39062516   1.12570158   0.25112054
