41
Energy:  -1096.26902006
O    2.94697875  -1.15522566   1.46340113
H    2.57315100  -0.72375951   0.69507722
H    2.33503141  -0.95604933   2.17197793
O   -3.01128917  -1.14628799   1.16279882
H   -3.26625874  -1.09667984   0.24151634
H   -2.05534679  -1.19204116   1.14511673
O    2.42552984   2.15951599  -1.85348475
H    1.88913146   2.80418296  -1.39205964
H    2.23572960   1.33065453  -1.41394363
O    1.18131376  -3.19440719   0.84541067
H    0.47240237  -2.55175272   0.81949303
H    1.95549065  -2.68795171   1.09114393
O   -0.77749505  -2.05795526  -2.78226743
H    0.09362372  -2.35512174  -2.51944426
H   -0.87389120  -1.20068467  -2.36750633
O   -0.05758025   2.08899667  -3.09650424
H   -0.47629963   1.41578102  -2.56013998
H    0.87552554   2.00675347  -2.89957406
O    1.75067063  -2.47554462  -1.72769823
H    1.77060425  -1.54651202  -1.49806174
H    1.54521298  -2.92149881  -0.90602684
O    0.85672071  -0.67293984   3.22446600
H    0.35628321  -0.90294871   2.44159304
H    0.66793070   0.25471900   3.36602613
O    0.32702652   3.68004656  -0.87321133
H   -0.00463377   3.29518951  -1.68445628
H    0.17264528   3.00881427  -0.20849674
O    0.06050048   1.95557055   3.30187522
H    0.23659276   1.91195118   2.36202379
H   -0.87918196   1.78990257   3.37792050
O   -2.45340268   1.42958305   2.08708337
H   -2.74579578   0.55373356   1.83484185
H   -1.67923315   1.58890633   1.54716720
O   -3.25632623  -0.96928683  -1.59477226
H   -2.85679595  -1.74469967  -1.98890717
H   -2.52707525  -0.36281608  -1.46586107
S    0.04433651   0.18844939  -0.09752826
O   -0.86173494   0.22451680  -1.27982842
O   -0.35128702  -0.93531654   0.79730812
O    1.44865762  -0.01081593  -0.55390045
O   -0.05828961   1.47541324   0.64630771
