41
Energy:  -1094.76814242
O    1.52051428  -1.68191990   2.38904875
H    1.46817576  -1.88948962   1.45609252
H    1.18976474  -0.78606775   2.45451261
O   -1.11333651  -0.69166122  -3.06359031
H   -1.26009040  -0.16065419  -2.28082172
H   -0.67759623  -1.48027140  -2.74039341
O    3.77617102  -0.16445736  -1.11351684
H    3.04483974   0.39765983  -0.85776172
H    3.36314101  -0.92150224  -1.52887344
O   -0.84649190  -2.95349507   2.80579573
H   -1.15569470  -2.99827690   1.90101948
H    0.02495637  -2.56258992   2.74252712
O    1.98234089  -1.89962131  -2.36546920
H    1.50150862  -1.77895970  -1.54664508
H    1.86146251  -1.07620211  -2.83833396
O   -0.41663912   3.18063243   1.90720328
H   -0.15822712   2.25898414   1.90278726
H   -0.98650907   3.27375450   1.14378442
O    1.31114940   0.55642625  -3.38399051
H    1.43705530   0.87717799  -2.49096315
H    0.40815103   0.23929972  -3.40000799
O   -1.80281810  -0.39535194   2.98704431
H   -1.52415792  -1.31031368   3.02479824
H   -1.10531084   0.04823095   2.50439570
O   -1.37490695   3.30490790  -0.70126602
H   -0.44324414   3.51763787  -0.75587568
H   -1.40770930   2.35081612  -0.77101365
O    1.32317238   3.69088358  -0.16448411
H    1.48140866   2.78371669  -0.42571460
H    0.90438444   3.62395147   0.69363511
O   -3.15763421  -0.54319783   0.60333808
H   -2.82009722  -0.43997792   1.49308314
H   -2.53326312  -0.06996184   0.05339238
O   -1.62016911  -2.78585712   0.20140309
H   -0.80436213  -2.32980513  -0.00525458
H   -2.27335045  -2.08961572   0.27092933
S    0.25087437   0.25135592  -0.03525008
O    1.34307949   1.03999870  -0.67182729
O    0.52403880  -1.20337067  -0.20628150
O    0.18482787   0.57689354   1.41725229
O   -1.04844868   0.59190211  -0.68014382
