41
Energy:  -1094.77182312
O    2.74674207  -2.75659930  -1.69467298
H    2.95535310  -2.44091895  -0.81543513
H    1.79261794  -2.83290710  -1.70216363
O   -2.55114098  -1.49806813  -1.51426625
H   -2.33883779  -0.80514425  -0.88895377
H   -1.86183044  -2.15090196  -1.39223835
O    3.15260482  -1.40023436   0.61908195
H    3.32286931  -0.69903654  -0.00985642
H    2.21236770  -1.34611175   0.79012799
O   -0.73686216  -2.10666556   2.82523517
H   -1.55096633  -1.61192919   2.73194968
H   -0.22378032  -1.87252310   2.05182959
O    3.12052164   0.03970985  -1.75718424
H    2.94821984  -0.87388648  -1.98496853
H    2.26284040   0.39461919  -1.52340206
O   -0.13177785   3.26706978  -1.75610468
H   -1.01636138   3.18702627  -1.39926176
H    0.26854318   2.41185415  -1.59932091
O   -0.50139444  -0.52391058  -3.09671531
H   -0.04714359   0.04757463  -2.47760896
H   -1.36037717  -0.67171492  -2.70107104
O   -0.21136507   0.40986675   3.88209605
H   -0.18818213  -0.52581386   3.68160612
H    0.09489525   0.83464629   3.08084777
O   -2.30207647   2.94535956  -0.07258019
H   -2.18008060   1.99770147  -0.01519564
H   -1.61089082   3.31020532   0.48003343
O    0.12215751   3.88021635   0.92756620
H    0.24755934   3.82573346  -0.01981854
H    0.29746755   2.99407991   1.24420549
O   -2.62497759  -0.10272719   2.60702365
H   -1.91595893   0.29056919   3.11578915
H   -2.38811728   0.06591143   1.69505322
O    0.02562172  -2.66593654  -1.50731976
H    0.18304025  -2.21296141  -0.67890876
H   -0.03938791  -1.96475831  -2.15566743
S   -0.00697473   0.32490025   0.29868919
O    0.62249995   0.76976990  -0.97643928
O    0.45030788  -1.05557323   0.62316662
O    0.38886621   1.25032650   1.39732299
O   -1.48957297   0.33507783   0.15070644
