41
Energy:  -1094.94912054
O    2.11958197  -3.45918085  -0.29501418
H    2.52296147  -2.59591781  -0.20394420
H    1.30831388  -3.39941950   0.20947022
O   -3.17335010  -0.00556036  -1.20003118
H   -2.95593654   0.43465877  -0.37834371
H   -2.44672352  -0.61094615  -1.34752256
O    3.10896680  -0.90707748  -0.19811478
H    2.91500199  -0.53396098  -1.05799476
H    2.44346320  -0.53501582   0.38059666
O   -0.27572433  -3.05017373   1.07967884
H    0.09253693  -2.58220838   1.82909456
H   -0.39488134  -2.37598923   0.41071791
O    2.08417546   0.06422095  -2.57030209
H    1.62738411  -0.77332915  -2.64829784
H    1.47643744   0.62505826  -2.08827734
O    0.42386928   3.83485013  -0.00825254
H   -0.50219143   3.85875289   0.23272891
H    0.53552353   2.99246222  -0.44887459
O   -1.95987384   2.24445998  -2.29244371
H   -1.08990614   2.02330044  -1.96006363
H   -2.50266882   1.48949953  -2.06519895
O    0.40075291  -1.44146529   3.18801382
H    0.75012742  -0.83871534   2.53161318
H   -0.54227161  -1.27734640   3.18674885
O   -2.29098356   3.32149763   0.24730584
H   -2.25611901   3.16560519  -0.69647054
H   -2.01001331   2.49395976   0.63777816
O    1.85635306   2.53667986   2.00573658
H    1.39637001   3.07979568   1.36567983
H    1.61907830   1.63893629   1.77338123
O   -2.23313023  -1.20193957   2.41738705
H   -2.04460751  -0.39040307   1.94611267
H   -1.93464713  -1.89578844   1.82941304
O    0.77992808  -2.36758303  -2.43756282
H    0.19977144  -1.86812900  -1.86293617
H    1.32883856  -2.87640284  -1.84087904
S   -0.18847001   0.31997544   0.08207333
O    0.23417871   1.30587115  -0.95208224
O   -0.53232076  -0.97239503  -0.57492380
O    0.92542271   0.10513799   1.04808984
O   -1.38116070   0.84128767   0.80720952
