53
Energy:  -1378.85675358
O    0.25936197   0.22292728   3.47007364
H   -0.26229924   0.24741293   2.66788795
H    0.86561665  -0.50628452   3.33993044
O   -2.62246371  -1.84623501   1.87205413
H   -2.08420485  -1.08500727   1.65516342
H   -2.13099180  -2.59299510   1.52994805
O   -3.13159073  -1.97324272  -0.90257666
H   -3.22778402  -1.77410752   0.02872558
H   -2.45299624  -1.37114210  -1.20788995
O    1.62295702   1.62764317  -3.69911692
H    1.11309756   2.17453885  -3.10147129
H    2.21851035   1.14053555  -3.12966609
O   -0.08820669  -0.53009021  -3.85920591
H   -0.52953688  -0.45886915  -3.01280939
H    0.46181083   0.25168519  -3.90960227
O    1.63471988  -2.15975000  -2.50734472
H    1.24314050  -2.16931409  -1.63395708
H    0.99535763  -1.70060907  -3.05198898
O    1.74400147  -1.90217657   2.58626113
H    2.58107622  -1.72679794   2.15640062
H    1.11499553  -1.97033923   1.86797343
O    3.02864915   0.10563065  -1.88454739
H    2.67411894  -0.72994155  -2.18845409
H    2.36698401   0.44133567  -1.27978858
O    3.33063542  -1.59688458   0.30696871
H    3.52615282  -0.93986300  -0.36110871
H    2.38613116  -1.73594325   0.23764171
O    0.00331876   4.01407923   0.81099708
H    0.59049027   3.42601921   1.28602010
H    0.10625918   3.76546969  -0.10760425
O    1.62357594   2.11088640   1.93437354
H    1.19996994   1.55019716   2.58430998
H    1.50326812   1.64942805   1.10442531
O   -2.34517485   2.02351526  -1.69144028
H   -2.46594578   2.22051901  -0.76255075
H   -1.97723041   1.13994124  -1.70350992
O   -2.23796140   2.43910252   1.01507616
H   -1.49897055   3.04712195   1.03597474
H   -1.84168267   1.57564032   1.13181537
O   -1.87029531  -1.25949707   4.49081447
H   -1.12051138  -0.70820671   4.26690635
H   -2.22977257  -1.53038065   3.64604821
O   -1.25633770  -3.62121312   0.25276895
H   -1.90700055  -3.23975629  -0.33660393
H   -0.49942156  -3.03939954   0.18346699
O    0.21617057   2.93950060  -1.71908706
H    0.56374526   2.20148831  -1.21832610
H   -0.70997071   2.73119752  -1.84198544
S   -0.09821883  -0.27122754  -0.13792274
O    0.93916068   0.77936044  -0.33844365
O    0.56321327  -1.59365129   0.04593319
O   -0.90576668   0.05263491   1.07165554
O   -0.98948262  -0.32325423  -1.33083603
