53
Energy:  -1378.94050116
O    0.17081546  -0.96675032   3.23133933
H   -0.21939521  -0.50237826   2.49084890
H    0.76979570  -1.59683742   2.83078375
O   -3.38396003  -0.30633879   1.03717919
H   -2.46328899  -0.05550578   1.11254153
H   -3.44126230  -0.75901354   0.19573170
O   -2.94574243  -1.59212984  -1.33787766
H   -2.51606482  -2.30879206  -0.87096839
H   -2.24060261  -0.97398385  -1.52998495
O    1.45541054   3.01401220  -3.49371658
H    1.14235213   3.21958992  -2.61282834
H    1.30893548   2.07268337  -3.58686661
O    1.21211361   0.23902139  -3.31106277
H    0.42131372   0.23140889  -2.77179527
H    1.92701828   0.36386571  -2.68691771
O    1.83757148  -2.31235918  -2.31326835
H    1.50498126  -1.61951880  -2.88387137
H    1.31785593  -2.23450837  -1.51322658
O    1.95480279  -2.55859911   1.88037088
H    2.78192404  -2.09969725   1.73370334
H    1.41749134  -2.33347163   1.12086718
O    3.41039364  -0.32036223  -1.29936543
H    3.00549559  -1.13355165  -1.60104805
H    2.70834549   0.14175448  -0.84131698
O    4.10615312  -0.92198408   1.32684100
H    3.56346298  -0.26219658   1.75858135
H    3.98279890  -0.75963160   0.39160988
O   -1.05404038   2.88682902   1.44448821
H   -0.49340782   3.18705920   0.72909684
H   -0.94134466   1.93634458   1.45501746
O    2.27469832   0.80607145   2.37386289
H    1.58131861   0.31868396   2.81873350
H    1.93885520   0.94723035   1.48869883
O   -2.04414684   2.41753765  -1.83056822
H   -2.66371737   2.44538221  -1.10146679
H   -1.66461537   1.53975120  -1.78959676
O   -3.55682728   2.40504789   0.47211536
H   -2.73541865   2.66878879   0.88679649
H   -3.62627005   1.46747389   0.65201681
O   -2.30205535  -2.27159478   2.70479423
H   -1.47734464  -1.87098070   2.97973506
H   -2.75175492  -1.58307192   2.21495915
O   -1.56538331  -3.34637090   0.26782112
H   -0.77754296  -2.82921721   0.10021595
H   -1.82959863  -3.10071127   1.15442895
O    0.40455487   3.24424393  -0.92208662
H    0.81038766   2.41337281  -0.67473107
H   -0.44199779   2.99654420  -1.29387322
S    0.03179602  -0.12869518  -0.16081132
O    1.24175679   0.74055259  -0.18324399
O    0.44815228  -1.55799664  -0.09880469
O   -0.79405418   0.20036704   1.03492675
O   -0.76867084   0.10229627  -1.39612334
