53
Energy:  -1386.93648457
O   -0.97092311  -1.08218375  -3.03413256
H   -0.67445395  -1.06705895  -2.12412754
H   -0.93551688  -0.16728495  -3.31330714
O    1.54428283  -2.23086808  -3.36062863
H    0.65341473  -1.88090487  -3.37119438
H    2.08695476  -1.49712280  -3.07191273
O    1.19848225   3.82994428  -0.34835161
H    0.38791124   3.81122980   0.16042757
H    1.19776864   3.00356301  -0.83138923
O    3.30259826  -1.35798591   0.13786640
H    2.75682597  -0.68929157   0.55164451
H    2.69006488  -2.05370584  -0.10089810
O   -2.62499229   0.36278600   2.24408177
H   -2.08956260   0.78091907   1.56975868
H   -2.10629451   0.44050843   3.04479625
O   -0.79089131   0.79220883   4.23240208
H   -0.54040954   1.56990756   3.73372842
H   -0.21139241   0.10257990   3.90863549
O    1.25152266  -3.00298820  -0.71032149
H    0.71508140  -2.22044212  -0.58349777
H    1.44537730  -3.01174072  -1.64764514
O    2.46550279   2.69813585   1.82345997
H    2.22302100   1.79656274   1.61227198
H    2.22286692   3.20040064   1.04558481
O   -2.82949072   1.73106498  -1.36177754
H   -3.13574779   0.82753026  -1.43964575
H   -2.17842125   1.70419655  -0.66062244
O    0.79699462  -1.14931786   3.11570989
H    1.08746525  -0.59814097   2.38903066
H    0.46826080  -1.94484832   2.69702479
O    2.97299762  -0.14521544  -2.29966241
H    3.24838654  -0.54103233  -1.47278770
H    2.27545427   0.46258314  -2.05421180
O   -0.21802130  -3.34664151   1.71779912
H   -1.01597236  -2.90444497   1.42802649
H    0.33427335  -3.38131249   0.93677389
O   -0.87246634   1.63575386  -3.28874231
H   -0.13071289   1.59327702  -2.68522811
H   -1.63161427   1.78706389  -2.72568677
O   -3.39380819  -0.95160575  -1.70450056
H   -3.14010164  -1.30332741  -0.85117957
H   -2.61641483  -1.06462266  -2.25141790
O   -2.30626453  -1.84739488   0.68353722
H   -1.54049191  -1.50784357   0.22036441
H   -2.52821925  -1.16267145   1.31450614
O   -0.15852279   2.91373521   2.56407576
H   -0.50390713   2.38895581   1.84189289
H    0.79205423   2.86570875   2.46244586
S    0.30968625   0.55039428  -0.08286514
O    0.88605458   1.26147317  -1.25856338
O   -0.18653361  -0.78905997  -0.50680872
O    1.36013640   0.38347144   0.96058648
O   -0.82091237   1.34569248   0.47332508
