53
Energy:  -1385.38235048
O   -1.71493293  -2.57679773   1.51399779
H   -2.51607181  -2.12629166   1.24669154
H   -1.00723942  -2.00755986   1.21172309
O   -3.64645973  -0.98215747   0.43416640
H   -3.06079780  -0.23795101   0.57340966
H   -3.41160989  -1.31347003  -0.43261465
O   -2.57101576  -1.96929030  -1.90583432
H   -2.00513693  -2.69237224  -1.63534310
H   -1.99663275  -1.20358800  -1.90983236
O    2.71256563   1.30170067  -3.00639698
H    2.06902364   1.98064953  -2.80363111
H    2.95459952   0.93837103  -2.15455015
O    0.98783096  -0.81534856  -3.31747476
H    0.24826477  -0.49975812  -2.79817101
H    1.59939849  -0.07923322  -3.33621533
O    1.63266405  -2.30926996  -1.12778861
H    1.08456293  -1.86310049  -0.48222698
H    1.41940643  -1.88418111  -1.95848260
O    1.65908485  -1.37053242   2.63478150
H    2.31434991  -0.67406968   2.59236439
H    1.11873605  -1.23943160   1.85563607
O    3.01690166   0.16638062  -0.50460442
H    2.72875597  -0.73595723  -0.64240978
H    2.20967374   0.65347425  -0.33921177
O    3.37674024   0.71466595   2.20773355
H    2.65521138   1.33192678   2.32863443
H    3.37392192   0.52289995   1.26994375
O    1.16600370   2.32802146   2.36013315
H    0.39721525   1.98517192   2.81581985
H    1.01349792   2.11604232   1.43924300
O   -1.17715823   1.17327014   3.29688165
H   -1.06309677   0.26408056   3.57364175
H   -1.44700682   1.11312038   2.38047803
O   -1.76043561   2.30033993  -2.80934218
H   -2.04319656   2.74307925  -2.00917971
H   -1.50129514   1.42527125  -2.52066786
O   -2.03155005   3.38940727  -0.29187454
H   -1.10273291   3.62077396  -0.29170885
H   -2.06436535   2.52798133   0.12417876
O   -0.76201846  -1.49628269   3.89181504
H    0.14830946  -1.46018083   3.59816288
H   -1.23031773  -1.91681390   3.17064852
O   -0.81534084  -3.82013100  -0.82520309
H    0.03808350  -3.40850845  -0.96109133
H   -1.10360473  -3.49853600   0.02902898
O    0.78441765   3.08819564  -2.16619012
H    0.81786994   2.54661869  -1.37764260
H   -0.05752760   2.87470700  -2.56841227
S   -0.42992659   0.35058883  -0.13155728
O    0.64702708   1.38016562  -0.11598749
O    0.07283414  -0.90357826   0.49645273
O   -1.60694460   0.85143865   0.63256187
O   -0.83262299   0.07432929  -1.53925621
