53
Energy:  -1378.79110502
O   -0.46323480  -0.42341641   3.13883808
H   -0.83572357  -0.19605259   2.28690519
H    0.16528887  -1.11963392   2.94786421
O   -3.12321152  -1.77573775   0.69757653
H   -2.51886897  -1.03415180   0.73001434
H   -2.58763005  -2.50868339   0.39397314
O   -2.90614879  -1.49158054  -2.09361092
H   -3.21737946  -1.42806348  -1.19065306
H   -2.14713204  -0.90935473  -2.12735307
O    0.82065818   1.61455147  -3.48819300
H    1.03937331   2.31043384  -2.86840007
H    0.24067083   1.03101274  -2.99898029
O    1.03158611  -1.14965951  -3.77691162
H    0.32857644  -1.08063240  -3.13096696
H    1.29707373  -0.24464604  -3.94030928
O    2.47640746  -2.36946114  -1.76790883
H    1.77541452  -2.24083971  -1.12892739
H    2.12197247  -2.02170433  -2.58624427
O    1.42561078  -2.16727183   2.22870114
H    2.20833694  -1.61630963   2.23220234
H    1.08009874  -2.08770464   1.33958791
O    3.52648677  -0.14909843  -0.53710363
H    3.31535056  -0.96823611  -0.98506212
H    2.68513256   0.29805618  -0.44541009
O    3.45532824  -0.31670181   2.19214440
H    2.81904986   0.37918218   2.35684759
H    3.58768219  -0.30144424   1.24426177
O    0.15983910   3.78799475   1.44045191
H    0.59963093   3.05777718   1.87587962
H    0.41832854   3.71063056   0.52206755
O    1.38179110   1.49194593   2.39045791
H    0.73461914   0.92364396   2.80810989
H    1.31322255   1.28868042   1.45760565
O   -1.84892400   2.54570455  -1.74778260
H   -1.57464440   1.64018638  -1.89283221
H   -2.12342608   2.56940374  -0.83109356
O   -2.24832398   2.54542371   0.94907054
H   -1.46743036   3.03425183   1.20884753
H   -1.95943440   1.63360508   0.91217277
O   -2.85928903  -1.81173909   3.46717625
H   -2.02581091  -1.34224248   3.50062776
H   -3.06995473  -1.86059699   2.53472533
O   -1.49388974  -3.45374776  -0.75086538
H   -1.93616879  -2.94458044  -1.43010740
H   -0.72028486  -2.93588167  -0.52819508
O    0.73735355   3.24208346  -1.20392667
H    0.97064953   2.38900120  -0.83779076
H   -0.17828372   3.14819728  -1.46665395
S   -0.10144816  -0.17094640  -0.38855669
O    1.01370539   0.78999862  -0.15808494
O    0.40100202  -1.56386125  -0.22293052
O   -1.18934570   0.08508378   0.59685060
O   -0.63115437   0.00499325  -1.77006188
