53
Energy:  -1378.72093817
O    0.49147295  -0.20912350   3.46416025
H   -0.18447670  -0.16147307   2.78810304
H    1.08591572  -0.89548954   3.16122248
O   -3.66785146  -2.82857918   0.79729203
H   -3.65303699  -1.99449334   1.26666735
H   -3.44967359  -2.59947945  -0.10611463
O   -2.58572086  -2.50189701  -1.69741830
H   -1.99273787  -3.13137819  -1.28710566
H   -2.12504418  -1.66488494  -1.63894056
O    1.90719180   1.65572450  -3.24650795
H    1.32525229   2.18105771  -2.69732376
H    2.43978475   1.15903632  -2.62531761
O    0.30967944  -0.56874182  -3.57424229
H   -0.28307578  -0.49421897  -2.82636567
H    0.82434887   0.23806201  -3.55387541
O    1.95132782  -2.22343254  -2.09944144
H    1.45985103  -2.21877278  -1.27806412
H    1.38136106  -1.77298415  -2.72271184
O    2.19461279  -1.94156950   2.17996473
H    2.85522723  -1.30978328   1.89594610
H    1.58049802  -1.99231338   1.44748951
O    3.14150123   0.10134834  -1.30886373
H    2.93609777  -0.77662167  -1.63012675
H    2.34796670   0.38180815  -0.85292833
O    3.86796983   0.10533071   1.38005061
H    3.23236074   0.75297676   1.68466107
H    3.73352181   0.06400548   0.43324133
O    0.05206335   3.80137045   1.21565865
H    0.64983816   3.18516863   1.63896994
H    0.14855117   3.62488164   0.27983086
O    1.77173412   1.78368571   2.11096776
H    1.35709658   1.20633858   2.75204330
H    1.47862302   1.45038713   1.26289360
O   -2.35161601   2.07880175  -1.45655169
H   -2.46379152   2.22463809  -0.51720071
H   -2.00958227   1.18718314  -1.52182821
O   -2.27748981   2.33004602   1.28964304
H   -1.54363622   2.94061199   1.35964278
H   -1.87344927   1.46333309   1.33197264
O   -3.51955580  -0.40124164   2.09921967
H   -2.59553435  -0.39451295   1.84947791
H   -3.82032366   0.49163492   1.93027593
O   -1.13478190  -3.92583905   0.17453884
H   -0.51222530  -3.19927974   0.20222824
H   -1.90192563  -3.60268542   0.64707885
O    0.24665631   2.92596918  -1.40440408
H    0.54352360   2.14279998  -0.94099534
H   -0.67921788   2.76219831  -1.58375826
S   -0.20443488  -0.34492490  -0.00714925
O    0.86045579   0.69096014  -0.12138611
O    0.42305288  -1.69036283   0.11995650
O   -1.03781874  -0.06981396   1.19696259
O   -1.06342945  -0.31048294  -1.22412998
