53
Energy:  -1378.61347044
O   -1.09183179  -1.05620286   3.44057076
H   -1.17497092  -0.63438353   2.58535839
H   -0.17763745  -1.33687171   3.48186913
O   -3.20721951  -1.25245206   0.11147468
H   -2.47692128  -0.74140401   0.46036755
H   -3.16563889  -1.11526001  -0.83492969
O   -2.72845006  -0.71352862  -2.54686715
H   -1.92877717  -1.23803325  -2.50624665
H   -2.43198459   0.18677024  -2.41344289
O    2.45553908   2.71408336  -0.89912481
H    2.03784115   2.30784986  -0.13969434
H    2.60205575   1.99032645  -1.50817378
O    2.48511606   0.39417237  -2.50718501
H    2.50292428  -0.46059129  -2.93764268
H    1.65418055   0.40639710  -2.03218124
O   -0.32272103  -2.04859783  -2.20020651
H   -0.33718481  -2.62342906  -1.43496687
H   -0.08522645  -1.18970795  -1.85072640
O    1.62971430  -1.38971014   3.49139068
H    1.57795917  -0.46342585   3.72708258
H    1.58100300  -1.39719353   2.53546022
O    2.31020315  -2.33380048  -2.96172500
H    1.36849147  -2.33266287  -2.79023252
H    2.71194702  -2.26549207  -2.09560280
O    3.37795569  -1.45152794  -0.58749950
H    2.65207446  -1.41350820   0.03530287
H    3.29331891  -0.65003923  -1.10391436
O   -0.23403708   3.84814702   0.96600978
H    0.25008318   3.03583836   1.11438115
H   -0.10750213   4.03650026   0.03609376
O    0.79836322   1.20950711   3.76937396
H   -0.05148483   0.76909855   3.76385733
H    0.96879172   1.41374915   2.84987890
O   -1.65250566   1.81417995  -1.97267490
H   -2.08176557   2.04047598  -1.14759437
H   -0.91854337   1.25587417  -1.71610939
O   -2.47977408   2.35573616   0.57862039
H   -1.78426638   2.97677613   0.79497713
H   -2.12597542   1.50234025   0.82916735
O   -2.25812741  -3.07922000   1.91395394
H   -1.87718234  -2.46467653   2.54120909
H   -2.69763817  -2.52357867   1.27027323
O   -0.10316324  -3.35970935   0.20918764
H    0.42529190  -2.61387525   0.49326247
H   -0.85957225  -3.35517140   0.79575107
O    0.14566621   3.93939302  -1.74258377
H    0.97718286   3.51488554  -1.53138405
H   -0.45507561   3.21558540  -1.91990728
S    0.33556705   0.18048102   0.47321391
O    0.98584796   1.40251920   1.02444655
O    1.12046006  -1.02204302   0.87067951
O   -1.04960847   0.06947781   1.01086350
O    0.28556865   0.27197008  -1.01313394
