53
Energy:  -1375.68525314
O   -0.99201114  -0.79810929   3.15188974
H   -1.43122655  -0.48969228   2.35929865
H   -0.53642390  -1.59458909   2.87932410
O   -4.18385688  -1.06678363   0.00429555
H   -3.41272619  -0.63795272   0.37536610
H   -4.06367341  -0.99895954  -0.94290436
O   -3.27077325  -1.37998632  -2.58971261
H   -3.02457568  -2.19045109  -2.14388140
H   -2.54046272  -0.78372518  -2.42433114
O    2.57691031   1.37504826  -2.61616033
H    2.01486004   1.97526583  -2.12619073
H    2.80105069   0.68897411  -1.98743527
O    0.66497935  -0.29320094  -3.69779846
H   -0.06391011  -0.14727943  -3.09475707
H    1.32931391   0.34147707  -3.42933012
O    1.42126042  -2.47738109  -2.20097783
H    0.74813979  -2.42424394  -1.52251124
H    1.16112148  -1.82261459  -2.84892877
O    2.79125758  -1.20222603   1.96419377
H    2.15209066  -0.52251769   2.17795552
H    2.93044100  -1.11280626   1.02139797
O    2.85146378  -0.66683592  -0.75265162
H    2.52732348  -1.40339517  -1.27096175
H    2.06085388  -0.22688982  -0.44021722
O    3.67536256   0.76909456   3.76779224
H    3.72940850  -0.01696336   3.22426319
H    2.81862200   1.14381570   3.56331354
O    0.15111772   3.40409548   1.64365774
H    0.44065051   2.59797144   2.07093592
H    0.45633554   3.31988803   0.74033995
O    1.04615002   0.90444820   2.55994348
H    0.33244382   0.40600974   2.95795656
H    0.91820436   0.79600402   1.61755205
O   -1.74782619   2.72676127  -1.79696576
H   -2.10146967   2.78858383  -0.90964051
H   -1.60784514   1.78993605  -1.93479057
O   -2.38357963   2.63829757   0.88171344
H   -1.55477184   2.96175650   1.23481940
H   -2.28364808   1.68641922   0.86855522
O   -2.68707555  -3.29168375  -0.67431442
H   -1.81461375  -2.91902055  -0.54717511
H   -3.27669170  -2.67646251  -0.23832420
O    0.53289174  -2.80530997   2.01866523
H    0.15659537  -2.58922730   1.16547054
H    1.39816085  -2.39608525   2.00992689
O    0.85293999   2.83348419  -0.97696077
H    0.81850678   1.95337000  -0.60220055
H   -0.00404251   2.95383922  -1.38601763
S   -0.69636722  -0.33521174  -0.33353471
O    0.55283036   0.39687912   0.01810201
O   -0.43547353  -1.80202126  -0.31107760
O   -1.76075524  -0.00486856   0.65543018
O   -1.14207047   0.06916374  -1.69659344
