53
Energy:  -1385.42069832
O   -2.47388004  -0.65702807  -2.55025098
H   -1.92412702  -0.87618055  -1.79793744
H   -2.09352894   0.14931227  -2.89864752
O    1.20812042  -2.39824002  -2.17660047
H    1.73955385  -1.66686534  -2.49108648
H    0.39203631  -1.99314414  -1.88311129
O    2.14504454   3.02945009  -1.05735430
H    1.65156487   3.36974997  -0.31109319
H    1.64046978   2.27180551  -1.35334559
O    4.34753544  -0.61474031  -0.43348674
H    4.06510339   0.14975735   0.06851656
H    3.76842225  -1.31956719  -0.14352326
O   -2.98992968  -0.85331882   1.31726811
H   -2.28600478  -0.91983304   0.67205695
H   -2.71643025  -0.14369900   1.89853364
O   -1.85691780   1.03369965   2.91591687
H   -1.52139604   1.34191680   2.07409790
H   -1.14805264   0.50086917   3.27624132
O    2.39225778  -2.42541220   0.26701535
H    1.97354234  -1.63044711   0.59707556
H    2.05547707  -2.52191766  -0.62376930
O    3.20858696   1.49736098   0.93476149
H    2.49468158   0.86351817   1.00414623
H    2.99117503   2.02016873   0.16298694
O   -2.77779517   2.52293678  -0.88501065
H   -3.42084727   1.81525846  -0.84133856
H   -2.05724061   2.22712252  -0.32865923
O    0.21959169  -0.69670449   3.41818782
H    0.62000338  -0.51464908   2.56803598
H   -0.35108684  -1.44843553   3.25863127
O    2.79335064  -0.25288916  -2.69152629
H    3.42584949  -0.33205078  -1.97744612
H    2.04451406   0.19682921  -2.30008152
O   -1.60167350  -2.67275706   2.83234544
H   -2.22048513  -2.08688643   2.39638716
H   -1.08237318  -3.04623350   2.12025389
O   -1.25916466   1.74199160  -3.04323693
H   -0.47744039   1.43299644  -2.58534938
H   -1.79422118   2.14501311  -2.35948256
O   -4.35183810   0.26603322  -0.80814877
H   -4.00337823  -0.10591392   0.00207520
H   -3.79267059  -0.09312981  -1.49703589
O   -0.20208214  -3.32983500   0.62103976
H   -0.53678025  -2.53119307   0.21314261
H    0.74771637  -3.21193736   0.63569538
O    0.97900271   3.32550220   1.40558674
H    0.25617671   2.74943983   1.15677643
H    1.69462212   2.73011136   1.62836568
S    0.04624058   0.27668600  -0.10015268
O    0.68240199   0.74138367  -1.36484819
O   -0.85315931  -0.87517672  -0.39065588
O    1.10302592  -0.14827027   0.86042888
O   -0.74730627   1.38880734   0.49446447
