53
Energy:  -1378.25883351
O   -0.40451505  -1.05299142   3.22007050
H   -0.57978532  -0.70103662   2.34735062
H    0.49335502  -1.38104711   3.17066754
O   -3.21976455  -0.83215423   0.73487490
H   -2.31520171  -0.52092245   0.76853046
H   -3.47958224  -0.71627577  -0.17907192
O   -3.59595955  -0.38437941  -1.94156372
H   -2.97883848  -1.10038325  -2.09233483
H   -3.05279541   0.40377615  -1.93764136
O    2.51150775   1.68909652  -2.37134783
H    2.23323886   1.45830143  -1.48504546
H    2.30504012   0.91602245  -2.89666626
O    1.84619433  -0.70497693  -3.47800071
H    2.45666311  -1.14826102  -2.88888363
H    1.05582611  -0.57781394  -2.95323458
O   -1.65790581  -2.31102431  -2.18374382
H   -1.40912530  -2.90755935  -1.47770837
H   -1.04438574  -1.58022877  -2.10783041
O    2.17770864  -1.67760778   2.61435768
H    2.40083932  -0.74767716   2.65526723
H    1.87877524  -1.81335051   1.71522222
O    3.43047317  -1.52841581  -1.37098519
H    2.66745059  -1.76541276  -0.84386012
H    3.61542473  -0.62047532  -1.13084182
O    2.43109464   1.05954346   2.53161528
H    1.62986512   1.38307818   2.94342640
H    2.22574368   1.03040162   1.59715630
O    0.92007859   3.46353137   0.11212889
H    1.24919518   2.56561694   0.15291870
H    0.73459126   3.60923429  -0.81555476
O   -0.07956810   1.69217206   3.53934820
H   -0.26138876   0.75242484   3.53240127
H   -0.57061285   2.03713541   2.79362225
O   -1.79424449   1.76912361  -1.74387818
H   -1.83047025   2.02419825  -0.82200157
H   -1.18026609   1.03510719  -1.76583876
O   -1.38923605   2.47116647   1.09772869
H   -0.59376187   2.91250568   0.79994963
H   -1.18500045   1.53831065   1.03215675
O   -2.16926172  -2.91620132   2.16591593
H   -1.53564156  -2.38971534   2.65332732
H   -2.67079633  -2.27857427   1.65785430
O   -0.62947991  -3.68292599   0.00191404
H   -1.16708106  -3.48381381   0.76844597
H    0.07607774  -3.03664737   0.02919393
O    0.33673334   3.38550234  -2.55466536
H    1.07956355   2.78382061  -2.60380008
H   -0.41904346   2.82096595  -2.39239414
S    0.48743341  -0.26646686  -0.18108048
O    1.49903511   0.81427813  -0.01151559
O    1.12146811  -1.58725311   0.09025637
O   -0.63599729  -0.04939629   0.77332188
O   -0.03477232  -0.24349618  -1.57638459
