53
Energy:  -1376.21505124
O   -0.00322829  -1.18442963   3.06552196
H   -0.50808029  -0.75458941   2.37516431
H    0.69150540  -1.65028180   2.60016327
O   -3.58949212  -1.39099610   1.04639916
H   -2.82472957  -0.81965793   1.11670402
H   -3.59320414  -1.67563649   0.13250753
O   -2.99905636  -2.09559179  -1.54411332
H   -2.39336048  -2.73076904  -1.16212613
H   -2.47622514  -1.30133131  -1.65379314
O    1.86059570   2.13527502  -3.19595099
H    1.25212451   2.65097692  -2.66675707
H    2.34980903   1.61392570  -2.55947863
O    0.12286845   0.08147683  -3.81481279
H   -0.46759862   0.06709251  -3.06157074
H    0.68040101   0.84559485  -3.66813991
O    1.87067422  -1.61415826  -2.53092782
H    1.36010405  -1.72940093  -1.72951090
H    1.29047640  -1.12870882  -3.11739281
O    1.98677561  -2.30023869   1.57972816
H    2.68430949  -1.64664990   1.52972791
H    1.41771085  -2.10125944   0.83621998
O    2.97993974   0.52386731  -1.22922121
H    2.78606134  -0.28645254  -1.70041623
H    2.15712398   0.75294857  -0.79710104
O    3.70986716  -0.17352047   1.39345065
H    3.08436588   0.30180168   1.94030424
H    3.49448609   0.08929095   0.49859144
O    0.62549613   3.01338548   1.53170475
H    0.64133555   2.23199725   0.97906255
H    0.67113525   3.74426042   0.91528708
O    1.81642610   0.95760122   3.08394690
H    1.37699443   1.69435219   2.65929450
H    1.14275386   0.28056994   3.14739934
O   -2.47578205   2.52944650  -1.32001723
H   -2.17315789   1.64277794  -1.51615322
H   -2.48416270   2.57416489  -0.36389910
O   -2.09657933   2.47400726   1.44389899
H   -1.21099700   2.81449147   1.57057297
H   -1.98244344   1.52568711   1.38149911
O   -1.98916606  -3.09972654   2.45565888
H   -1.29564119  -2.50895110   2.74932447
H   -2.62515605  -2.52813699   2.02550313
O   -1.20250396  -3.65882995  -0.14508022
H   -0.57639914  -2.94553129  -0.26929625
H   -1.45727228  -3.59693651   0.77551424
O    0.14720619   3.33419059  -1.40890300
H    0.39722573   2.51788561  -0.97604245
H   -0.79660107   3.25352661  -1.54657298
S   -0.40476418  -0.10673734  -0.24375395
O    0.59536820   0.99632037  -0.18808607
O    0.30313630  -1.41572155  -0.31816666
O   -1.25342571  -0.06993488   0.98038625
O   -1.26413552   0.06238669  -1.44914931
