53
Energy:  -1388.85604059
O   -0.96712567  -1.01733126  -3.04089848
H   -0.66347591  -1.05792954  -2.13404654
H   -0.91901119  -0.08889280  -3.26875564
O    1.53757660  -2.18381105  -3.43776838
H    0.65567575  -1.81176975  -3.42952214
H    2.09496247  -1.48771965  -3.08990403
O    1.62243772   3.71293127  -0.27265106
H    0.89594916   3.80406001   0.34390532
H    1.45899950   2.87977955  -0.71466691
O    3.27357111  -1.56436325   0.18958174
H    2.73132636  -0.90679662   0.62525205
H    2.65085912  -2.22212034  -0.11996185
O   -1.93048067  -0.00189476   2.68303091
H   -1.63081216   0.51945607   1.93830013
H   -1.15347281  -0.48334542   2.96710114
O   -1.74351035   2.45137625   4.00360609
H   -1.16188510   2.87386626   3.37158860
H   -1.88015560   1.57125207   3.65297617
O    1.22045496  -3.10071896  -0.84193814
H    0.70286760  -2.31309873  -0.67463736
H    1.42290022  -3.06079807  -1.77663279
O    2.53695546   2.43886664   1.99981547
H    2.22842167   1.55741418   1.78986239
H    2.49205274   2.91296973   1.16948911
O   -2.80255143   1.71076785  -1.21503692
H   -3.11285300   0.81589100  -1.35338505
H   -2.15345661   1.63427705  -0.51571087
O    0.38509200  -1.42686341   3.04652636
H    0.84934389  -0.85606389   2.43424380
H    0.24526016  -2.23860895   2.55893219
O    3.01572593  -0.23220402  -2.20130951
H    3.27133530  -0.66921983  -1.38895929
H    2.33715064   0.38879615  -1.93649596
O   -0.30791450  -3.62677688   1.48360451
H   -1.08584872  -3.13181930   1.22656914
H    0.25831833  -3.60149555   0.71225952
O   -0.81084364   1.70751072  -3.11553840
H   -0.06798631   1.62819306  -2.51712086
H   -1.56651829   1.84173159  -2.54354851
O   -3.39230691  -0.93848097  -1.69292107
H   -3.13706504  -1.30404973  -0.84590106
H   -2.61229045  -1.03240842  -2.23971519
O   -2.30431612  -1.88772476   0.68733310
H   -1.54360391  -1.56300659   0.20555838
H   -2.38707280  -1.29405001   1.43361285
O   -0.05430322   3.36887745   1.98691810
H   -0.43522789   2.65368440   1.47738190
H    0.81810853   3.05546304   2.22545739
S    0.34127948   0.42825802   0.00244961
O    0.96487772   1.19212523  -1.11456970
O   -0.16870895  -0.87437134  -0.51054995
O    1.35795415   0.18059720   1.06317424
O   -0.78900500   1.21468099   0.57174384
