53
Energy:  -1392.31520350
O   -1.02570485   0.21479997   3.28684923
H   -1.28031233   0.24502878   2.36462740
H   -1.00641695  -0.71815905   3.50003295
O   -2.88725042  -2.13937359   1.34027453
H   -2.44721021  -1.30738309   1.16595223
H   -2.56044482  -2.73044194   0.66199128
O   -3.31030041  -1.28807851  -1.81048294
H   -3.52360830  -1.08493187  -0.89973433
H   -2.51206887  -0.79012159  -1.98682683
O    2.67095646   1.63861286  -2.77875293
H    2.05135751   2.22343740  -2.34250844
H    2.96805647   1.04570829  -2.08851558
O    0.90371028  -0.24440415  -3.75098507
H    0.17118866  -0.14638317  -3.14267938
H    1.50942578   0.45728074  -3.51228254
O    1.98649700  -2.17901071  -2.11934028
H    1.31476588  -2.17227370  -1.43745777
H    1.63663582  -1.61185428  -2.80648115
O    1.24096596  -2.58230571   1.94324231
H    1.93584591  -1.93445893   2.06015367
H    0.81942386  -2.33615620   1.11986845
O    3.18077482  -0.15673842  -0.72248971
H    2.95453712  -0.95590752  -1.19828074
H    2.33825185   0.20785284  -0.45145445
O    3.12057536  -0.55089765   2.05655907
H    2.52279866   0.16426953   2.27434511
H    3.25312696  -0.47358825   1.11173889
O    0.05727322   3.73832362   1.29386368
H    0.46743410   3.02478164   1.78259443
H    0.36700806   3.62300472   0.39553316
O    1.22647769   1.46292777   2.39530115
H    0.49391911   1.05542969   2.85739972
H    1.10022406   1.21501942   1.47942271
O   -1.76292607   2.61458274  -2.09054217
H   -2.11036367   2.71513001  -1.20430902
H   -1.52088070   1.69040187  -2.15000308
O   -2.37657083   2.62995443   0.58855771
H   -1.59454353   3.06182258   0.93229463
H   -2.18383339   1.69483553   0.65665158
O   -1.07883991  -2.52142337   3.40523406
H   -0.25361326  -2.60553656   2.92757539
H   -1.74724964  -2.46870544   2.72209345
O   -1.89415948  -3.44344407  -0.84364226
H   -2.42762279  -2.83701194  -1.35734337
H   -1.09107881  -2.95733560  -0.65658118
O    0.80603709   3.05607019  -1.28178743
H    0.86095639   2.21335368  -0.83118272
H   -0.05629080   3.05032522  -1.69722628
S   -0.40048721  -0.21281587  -0.37431908
O    0.75253683   0.68902388  -0.09625323
O    0.04318696  -1.63166484  -0.27371677
O   -1.48088198   0.04140294   0.61977345
O   -0.91679067   0.04997455  -1.74707979
