53
Energy:  -1384.98823102
O   -0.64462527  -0.75388471   2.99867474
H   -0.87236018  -0.39354187   2.14163233
H    0.12724888  -1.29544964   2.83390347
O   -3.64332323  -0.43621756   0.94704763
H   -2.77312131  -0.06198845   0.80945025
H   -3.49272038  -1.19102572   1.51609531
O   -3.35456000  -1.47581292  -1.57887959
H   -3.59344282  -1.07449805  -0.74334789
H   -2.53816644  -1.04281688  -1.82837474
O    1.12447424   2.36454671  -2.54266011
H    0.17860601   2.50030992  -2.59863768
H    1.22941130   1.67307105  -1.88914540
O    0.76595574  -0.27043967  -3.89632631
H    0.03331667  -0.32103131  -3.28239445
H    1.17951908   0.57191560  -3.70755449
O    1.68342224  -2.52239644  -2.42401651
H    1.13272488  -2.41801850  -1.64808513
H    1.40271450  -1.82239966  -3.01345652
O    1.47939576  -2.20534930   2.06729432
H    2.27303127  -1.68335051   1.94943090
H    1.03654377  -2.16348955   1.21973210
O    3.37276490  -0.77455222  -1.14947731
H    2.99719506  -1.52916143  -1.60306752
H    2.62434645  -0.20534016  -0.97031451
O    3.64200441  -0.57101059   1.57500570
H    3.21676321   0.28296478   1.65328629
H    3.66022041  -0.74466499   0.63386588
O    0.02072875   1.97449597   3.09447626
H   -0.22614453   1.05216981   3.16229875
H   -0.54800578   2.32539352   2.40917065
O    2.18844300   1.77769031   1.44002777
H    1.79957820   1.30499419   0.70411039
H    1.48742939   1.82875110   2.08980048
O   -1.60423926   2.44469704  -2.13362281
H   -1.68401325   2.67992797  -1.20921253
H   -1.52157960   1.49107366  -2.13232463
O   -1.25817921   2.89875883   0.70667530
H   -0.40072014   3.19897164   0.40523200
H   -1.20797414   1.94398455   0.66066028
O   -2.69933057  -2.54846974   2.41505726
H   -1.97092900  -1.99635186   2.69936141
H   -2.41091560  -2.91449504   1.57895072
O   -1.97789763  -3.35689590  -0.10482697
H   -2.53888577  -2.84417841  -0.68675903
H   -1.12969249  -2.91454043  -0.13801620
O    1.19731316   3.77272585  -0.16189508
H    1.67443001   3.16887205   0.40727269
H    1.24145545   3.37041769  -1.02932315
S   -0.18902088  -0.28605164  -0.52582640
O    1.06121586   0.51929728  -0.61759355
O    0.15597406  -1.70912350  -0.25024527
O   -1.03973031   0.24146721   0.57785714
O   -0.93354315  -0.19584755  -1.81332390
