53
Energy:  -1379.82395036
O   -0.65050905  -1.13419069   3.18893634
H   -0.96819528  -0.68263100   2.40701489
H    0.08067323  -1.66770613   2.87754335
O   -3.72054694  -1.10192405   0.53270436
H   -2.95158078  -0.56870620   0.73420282
H   -3.56328094  -1.42414989  -0.35480325
O   -2.70840986  -1.99310657  -1.86170124
H   -2.23760253  -2.64877910  -1.34724439
H   -2.12008012  -1.23840963  -1.88477734
O    2.05740588   2.01174361  -2.11488178
H    2.92112419   1.66168231  -1.89652517
H    1.49090282   1.71427349  -1.40297051
O    0.92234353  -0.05967892  -3.54001886
H    0.15493114  -0.12156801  -2.97126600
H    1.39011592   0.71513693  -3.22844025
O    2.24635066  -1.86655588  -1.93087506
H    1.59707167  -1.91351065  -1.22911736
H    1.82587475  -1.34185978  -2.61214289
O    1.51521891  -2.46542134   2.17739463
H    2.29605945  -1.91734259   2.25568629
H    1.13308976  -2.21978170   1.33485660
O    3.35917235   0.09616359  -0.39226297
H    3.13888370  -0.66559679  -0.92838411
H    2.51267962   0.46599518  -0.14145129
O    3.53617404  -0.60076234   2.27196665
H    2.82801865  -0.03227608   2.57457391
H    3.60378505  -0.42142111   1.33415147
O    0.31290362   3.60322945   0.44340254
H    0.55028849   2.67835498   0.37641381
H    0.25334191   3.90204088  -0.46400915
O    1.30842652   0.86338500   2.81848203
H    0.59795636   0.28335463   3.09239583
H    1.12183069   1.05384703   1.89916812
O   -2.05773712   2.44530266  -1.86362656
H   -2.28324947   2.58627898  -0.94411490
H   -1.70638099   1.55533607  -1.89083274
O   -2.22820931   2.67172012   0.88251954
H   -1.37020469   3.09531139   0.85741264
H   -2.03343713   1.74178562   0.99878425
O   -2.60773377  -2.90109619   2.25003258
H   -1.94726532  -2.35774396   2.67989492
H   -3.09495799  -2.29236351   1.69479485
O   -1.31755027  -3.59020885  -0.10041823
H   -0.63365002  -2.92050766  -0.10397177
H   -1.75881389  -3.47813407   0.74157792
O    0.13215243   4.03036613  -2.25713862
H    0.84229931   3.39581078  -2.35338185
H   -0.66257280   3.49789881  -2.22363912
S   -0.26201759  -0.10117835  -0.14921598
O    0.78633815   0.94226078   0.03046433
O    0.35294527  -1.45158067  -0.01381194
O   -1.31682467   0.07058561   0.88904179
O   -0.87052914   0.03402087  -1.50255809
