53
Energy:  -1377.26993302
O    0.64598850  -2.11939784  -2.35375222
H    0.48370735  -2.76983340  -1.67050244
H    0.45985842  -1.27930649  -1.93442661
O   -1.39572119  -1.24618293  -4.09494788
H   -1.62215051  -0.43587757  -3.63847571
H   -0.71308775  -1.64352173  -3.55423972
O    3.11195106   1.77707461   0.63431668
H    3.38386228   0.85980943   0.66466037
H    2.19338780   1.76410934   0.90321311
O   -0.55245369   2.77345471   3.11185894
H   -1.02900844   3.38491939   2.55039803
H   -0.04864853   2.23225502   2.50398139
O   -0.01605374   3.28768166  -2.45307735
H   -0.64779057   2.58608549  -2.61088495
H    0.81490415   2.83466498  -2.30984075
O   -0.85728740   3.54138694   0.15330768
H   -0.33730810   2.82621815   0.51989599
H   -0.56763068   3.60674800  -0.75666966
O    2.16036538   1.61904934  -1.92082666
H    1.41026417   1.07842589  -1.67322553
H    2.59486597   1.82065249  -1.09209434
O   -2.99082327   1.82886460  -0.24916275
H   -2.61352808   1.04779028   0.15556320
H   -2.34769501   2.51859570  -0.08518441
O    0.10977555  -1.54723768   3.60623456
H    0.50602771  -1.38923454   2.74935004
H   -0.58661717  -0.89390429   3.67275153
O   -1.88549079   0.36247927   3.43406632
H   -1.46431032   1.22137566   3.46776863
H   -1.89005703   0.13373485   2.50461111
O   -0.87057201  -3.88189925   2.61829193
H   -0.39834192  -3.89452669   1.78578299
H   -0.54493171  -3.10167019   3.06710466
O   -1.71982024   1.12193392  -2.58520442
H   -2.37150521   1.35867745  -1.92528697
H   -1.01455857   0.70747402  -2.08815230
O    3.49158925  -0.94286686   0.48071763
H    3.45232048  -1.03046393  -0.47165654
H    2.58723011  -1.06334021   0.77029072
O    0.02902422  -3.42475976   0.03081053
H    0.45237306  -2.64991458   0.40043542
H   -0.90424504  -3.21206777   0.03237792
O   -2.50830724  -2.65228333   0.73560259
H   -2.23971952  -1.73360217   0.74643833
H   -2.15592182  -3.01494311   1.54833517
O    3.17238279  -0.94496245  -2.25624871
H    2.35798557  -1.44017126  -2.34432399
H    2.89615567  -0.02853633  -2.24657433
S    0.00468529   0.06576214   0.46736606
O    0.16611447   0.11529975  -1.01303478
O    0.82654247  -1.04764347   1.01961487
O    0.45516704   1.35667564   1.05957257
O   -1.42908280  -0.16128337   0.80331159
