53
Energy:  -1383.76878529
O   -0.93013077  -0.77980835  -3.11083381
H   -0.70115569  -0.85281309  -2.18429586
H   -0.93563950   0.16172558  -3.28321525
O    1.69178073  -1.73637678  -3.34846183
H    0.79136405  -1.41369775  -3.38533844
H    2.18982893  -1.01464563  -2.96468588
O    2.84003271   3.05231813  -0.73027158
H    1.98458071   2.64106887  -0.85399618
H    3.46819388   2.39285193  -1.02480462
O    3.15069823  -1.25394738   0.24934683
H    2.56046764  -0.65418547   0.70557633
H    2.58013276  -1.94908632  -0.07847742
O   -2.83752062   0.17769446   2.26637806
H   -2.31327070   0.65905482   1.62631083
H   -2.32862322   0.22258675   3.07584700
O   -1.01570466   0.52912618   4.28817578
H   -0.74829678   1.32610699   3.83041333
H   -0.44010607  -0.15200831   3.94036273
O    1.20493532  -2.87158661  -0.85443343
H    0.62356248  -2.13050890  -0.68401837
H    1.47231385  -2.76196137  -1.76696993
O    2.34527592   2.57199811   1.98130813
H    1.98240136   1.70468044   1.80154728
H    2.57227876   2.92055901   1.11921368
O   -3.00922471   1.81650569  -1.27957129
H   -3.26873448   0.91060115  -1.44756979
H   -2.37939083   1.75645163  -0.56128539
O    0.56962287  -1.37978523   3.10659313
H    0.84257125  -0.75250549   2.43707751
H    0.25158282  -2.13523579   2.61224829
O    3.02538357   0.28167673  -1.99466109
H    3.20450317  -0.25152063  -1.22016216
H    2.21458212   0.74509194  -1.78471058
O   -0.38181501  -3.44883323   1.48236304
H   -1.17449298  -2.98949798   1.20504623
H    0.19927131  -3.40460027   0.72301201
O   -0.95767484   1.95278602  -3.09260359
H   -0.24734770   1.87255833  -2.45602624
H   -1.74915139   2.03262860  -2.56022978
O   -3.43148347  -0.85045162  -1.88004333
H   -3.21083061  -1.25101335  -1.03915423
H   -2.62078231  -0.89469535  -2.38703245
O   -2.46860179  -1.89151166   0.51727909
H   -1.69237587  -1.51001568   0.10719862
H   -2.71376862  -1.26395155   1.19720069
O   -0.33745407   2.75905456   2.77870507
H   -0.70142724   2.33970334   1.99902569
H    0.60291024   2.80947830   2.60722833
S    0.11790643   0.57367195   0.02443061
O    0.73923815   1.38086665  -1.06299001
O   -0.32684607  -0.73868092  -0.52331492
O    1.11605258   0.34734206   1.10728750
O   -1.05681895   1.30516001   0.57673988
