53
Energy:  -1380.81088905
O   -0.87646853  -1.81725717  -2.51699755
H   -0.48610265  -1.64974511  -1.65921784
H   -1.06322977  -0.94723111  -2.86971095
O    1.82569252  -2.22301812  -3.24708267
H    0.89698167  -2.04836171  -3.09469123
H    2.26556491  -1.40682138  -3.00924443
O    2.64009389   2.91981966  -1.53819545
H    1.86169184   2.36482238  -1.49023602
H    3.34922130   2.31930246  -1.76786751
O    3.69163498  -0.94898394   0.21189101
H    3.03738486  -0.37461973   0.60975327
H    3.21274835  -1.75179241   0.00598322
O   -2.61048340   0.26089821   2.23582308
H   -2.03082086   0.57941086   1.54388892
H   -2.23102045   0.60536019   3.04426953
O   -0.92037996   1.31679616   4.13386623
H   -0.68003035   2.01233098   3.52174269
H   -0.32541266   0.59675842   3.92460226
O    2.04530226  -2.97799276  -0.62153235
H    1.32493138  -2.41376925  -0.34055285
H    2.06417061  -2.88662900  -1.57417525
O    2.40787805   3.03139397   1.25239903
H    2.17836613   2.10344550   1.30207562
H    2.52945615   3.19884525   0.31783460
O   -2.94106664   1.52461120  -1.16795121
H   -3.56244005   0.90271534  -0.78930562
H   -2.17740440   1.48135721  -0.59246800
O    0.63341646  -0.76862527   3.26614931
H    1.07137972  -0.30864541   2.55002183
H    0.04145901  -1.38209230   2.83086042
O    3.17308001   0.02273726  -2.29266254
H    3.50989150  -0.32262639  -1.46591359
H    2.32039133   0.39492983  -2.06765908
O   -1.37848084  -2.13975553   1.76535838
H   -1.87237641  -1.35287247   1.99582327
H   -0.79477852  -1.85891459   1.06062310
O   -1.16906104   0.82557961  -3.15164122
H   -0.37710581   0.94376244  -2.62716856
H   -1.88139617   1.10661928  -2.57733537
O   -4.42471991  -0.34987515   0.19910603
H   -3.93443547  -0.09731867   0.98145394
H   -3.96011482  -1.11565329  -0.13847034
O   -2.88552759  -2.47660038  -0.60375070
H   -2.26207846  -2.28026074  -1.30303161
H   -2.35488786  -2.49497562   0.19268867
O   -0.25209706   3.10973979   2.13567474
H   -0.56055190   2.45142212   1.51301486
H    0.67470606   3.22354257   1.92515928
S    0.41185536   0.33283348  -0.01042576
O    0.84301476   0.89543612  -1.32102862
O    0.12042989  -1.12015086  -0.16536997
O    1.49947345   0.51720032   0.99117085
O   -0.81549668   1.03884833   0.45352470
