53
Energy:  -1381.95451898
O   -0.46188700  -1.14827617   3.07647638
H   -0.85346733  -0.67660259   2.34134324
H    0.00329561  -1.88028303   2.67150361
O   -3.37544106  -1.79347425   0.29048270
H   -2.73598740  -1.12044325   0.52363530
H   -2.90870899  -2.36799581  -0.31640938
O   -3.23473785  -0.67796991  -2.32982147
H   -3.55289131  -0.83792885  -1.44132647
H   -2.41156576  -0.20480928  -2.20841891
O    2.72533388   2.14957340  -2.39979029
H    2.13834859   2.62384194  -1.81093592
H    3.05125978   1.41790136  -1.87570998
O    0.93513578   0.45881983  -3.63639894
H    0.21583278   0.45402558  -3.00488325
H    1.54980931   1.10837670  -3.29510117
O    2.00905985  -1.79980299  -2.46587926
H    1.36016323  -1.91399519  -1.77152693
H    1.65960888  -1.09164061  -3.00682465
O    0.20758425  -3.33414373   1.56669622
H   -0.72590812  -3.47312292   1.72641039
H    0.23864662  -2.80856790   0.76729831
O    3.31669880  -0.03118296  -0.81802987
H    3.09143453  -0.75409840  -1.40359039
H    2.48543521   0.21888635  -0.41467142
O    4.12153152   0.01603767   1.88881366
H    3.27157840   0.25119511   2.26098637
H    3.95584287  -0.07454187   0.95042437
O    0.38339953   3.26167987   2.20173457
H    0.78436564   2.44037633   2.48619639
H    0.64858145   3.35389157   1.28663490
O    1.51924854   0.76635893   2.67522884
H    0.90823481   0.12897042   3.04486375
H    1.36589129   0.72633403   1.73124186
O   -1.64036956   2.98172820  -1.23213896
H   -1.94035203   2.87467548  -0.32948616
H   -1.43256317   2.09374302  -1.52288055
O   -2.11895483   2.41834142   1.42295593
H   -1.29830611   2.74799355   1.78914851
H   -1.94865467   1.49299051   1.24701446
O   -2.41347445  -3.03993915   2.52978079
H   -1.88175918  -2.33003441   2.88970575
H   -2.85779479  -2.64924135   1.77734043
O   -1.95902356  -3.03428065  -1.67703149
H   -2.34218657  -2.31128454  -2.17371507
H   -1.14107040  -2.67934939  -1.32888171
O    0.97684812   3.16679742  -0.49648175
H    1.03401618   2.23973180  -0.26515298
H    0.09349354   3.27194028  -0.84983923
S   -0.30607376  -0.18678287  -0.31511448
O    0.90285418   0.57877013   0.10024301
O    0.06188861  -1.61321939  -0.53868226
O   -1.33940539  -0.10226516   0.75501752
O   -0.84963243   0.38958293  -1.57703621
