53
Energy:  -1393.51328685
O   -0.47302214  -0.80923178   3.17061657
H   -0.86657744  -0.47635772   2.36405539
H    0.24250363  -1.37169624   2.87415669
O   -3.74532528  -1.12218859   0.62904943
H   -2.96024556  -0.58955234   0.75625129
H   -3.64624604  -1.48977081  -0.24918657
O   -2.83074566  -2.08967550  -1.78073821
H   -2.35333752  -2.72187741  -1.24349148
H   -2.22673869  -1.35362508  -1.87890749
O    2.42387399   1.85656075  -2.92530218
H    1.80665171   2.39648801  -2.43159472
H    2.82077947   1.28434065  -2.26859674
O    0.76811845  -0.20774706  -3.72833415
H    0.06576726  -0.15781329  -3.07991972
H    1.31567589   0.55646480  -3.54835376
O    2.06523531  -2.04796492  -2.14197261
H    1.44188071  -2.07505411  -1.41607519
H    1.63216875  -1.51717287  -2.81051206
O    1.60141459  -2.21579299   2.09688857
H    2.34347321  -1.61501727   2.02870223
H    1.15053760  -2.13666018   1.25624608
O    3.23234861   0.10288780  -0.92693262
H    3.03119745  -0.72453449  -1.36413100
H    2.38774545   0.41348334  -0.60073061
O    3.48386659  -0.22505918   1.83599717
H    2.80721004   0.39304075   2.11225835
H    3.50650913  -0.14569045   0.88236214
O    0.14083288   3.73421516   1.44765688
H    0.54421903   2.98035655   1.87801565
H    0.36828978   3.63301074   0.52339887
O    1.26664802   1.34652230   2.43332609
H    0.66955396   0.74271568   2.87505915
H    1.12762877   1.18211764   1.50065433
O   -1.95968334   2.49288083  -1.84408884
H   -2.22918575   2.57870525  -0.92963027
H   -1.68988997   1.57851298  -1.92996556
O   -2.29368177   2.57757817   0.89560112
H   -1.50352085   3.04375219   1.16865670
H   -2.05310344   1.65208381   0.93819347
O   -2.49349408  -2.71809093   2.46168143
H   -1.81198250  -2.13289601   2.79231825
H   -3.01663891  -2.17058774   1.87619737
O   -1.46590761  -3.66338735   0.05334925
H   -0.76522974  -3.02054056  -0.05633378
H   -1.83121049  -3.47506512   0.91782620
O    0.62291258   3.15406457  -1.23563848
H    0.76992442   2.30445100  -0.81997498
H   -0.26668117   3.09969861  -1.58477907
S   -0.30276565  -0.20784608  -0.27393292
O    0.80791789   0.77383701  -0.12300119
O    0.23636116  -1.59111425  -0.14739652
O   -1.32121744   0.02733787   0.78792605
O   -0.93412422  -0.04144495  -1.61326000
