53
Energy:  -1377.39037963
O   -0.08780637  -0.94213894   3.12928809
H   -0.57843472  -0.58541442   2.38884006
H    0.47268279  -1.61551107   2.74373170
O   -3.21238981  -1.83723252   0.94148165
H   -2.56344329  -1.13488326   0.98397624
H   -2.77476284  -2.53954316   0.46036394
O   -3.33093182  -1.20245558  -1.82897644
H   -3.53292125  -1.21645505  -0.89343588
H   -2.54243832  -0.66395017  -1.89622057
O    1.45053281   3.08104912  -3.48985768
H    1.21223650   3.23778028  -2.57613887
H    1.27185267   2.15092350  -3.62831921
O    1.10374183   0.32861827  -3.39970302
H    0.29569285   0.31583410  -2.88674564
H    1.80127338   0.39094484  -2.74717181
O    1.73540081  -2.26635104  -2.53652007
H    1.15376958  -2.24854953  -1.77650687
H    1.41694731  -1.56036573  -3.09901802
O    1.58190760  -2.57836797   1.70230774
H    2.37547504  -2.05318001   1.59905962
H    1.07172622  -2.40019370   0.91224398
O    3.13526362  -0.25564584  -1.32162965
H    2.80289092  -1.08143129  -1.67353677
H    2.39127425   0.12208896  -0.85255813
O    3.65005296  -0.78283822   1.38165633
H    3.09643444  -0.10889173   1.77603498
H    3.59523776  -0.61789762   0.44036906
O    0.43563290   3.42017118   1.90334736
H    0.90666315   2.63305774   2.17687025
H    0.56078419   3.45739189   0.95509443
O    1.73997829   0.99449651   2.36041178
H    1.14686158   0.39904280   2.81853763
H    1.48994594   0.92072447   1.43939422
O   -1.99114436   2.68273946  -1.28844357
H   -2.17167359   2.62705354  -0.35007257
H   -1.74177585   1.79294644  -1.53807446
O   -2.08739805   2.40255219   1.44307486
H   -1.26408844   2.81298783   1.70752848
H   -1.86455415   1.48110434   1.31076343
O   -2.48701878  -2.29830663   3.59308405
H   -1.63600308  -1.86127408   3.56135584
H   -2.84445377  -2.19191498   2.71152130
O   -1.91035062  -3.38152099  -0.92373514
H   -2.40049407  -2.76617025  -1.46901920
H   -1.08630733  -2.93212907  -0.73603484
O    0.63623562   3.19827012  -0.83842812
H    0.86548059   2.29461899  -0.62141838
H   -0.29347653   3.16260494  -1.06336181
S   -0.26883293  -0.24632231  -0.32874752
O    0.93338547   0.61257144  -0.13620543
O    0.14997960  -1.67318781  -0.42229380
O   -1.19233004  -0.07457222   0.82786607
O   -0.96636674   0.14989935  -1.58435693
