53
Energy:  -1387.83099278
O   -0.44058060  -0.62220429   3.20370127
H   -0.84949864  -0.38529167   2.37130095
H    0.22959849  -1.26366887   2.96787289
O   -3.36204857  -1.78142956   0.68304922
H   -2.68011595  -1.11847223   0.79115717
H   -3.50101857  -1.83075707  -0.26272347
O   -2.80020447  -2.02623325  -2.05018012
H   -2.29278232  -2.72351694  -1.63478866
H   -2.20667191  -1.27547778  -2.06798928
O    2.46687147   1.87799099  -2.90047303
H    1.82202917   2.39663789  -2.41941623
H    2.86295396   1.31254731  -2.23743159
O    0.87522608  -0.21309999  -3.75099690
H    0.16116844  -0.18110629  -3.11434162
H    1.40523211   0.55980636  -3.55621180
O    2.19651818  -2.03978413  -2.16838235
H    1.56294216  -2.08187753  -1.45211325
H    1.76506447  -1.51115140  -2.83966991
O    1.56007184  -2.17278799   2.13854623
H    2.30641197  -1.57763666   2.06781324
H    1.13851025  -2.13213483   1.28013782
O    3.27648777   0.12686724  -0.90074144
H    3.10347195  -0.70041227  -1.35008094
H    2.41935568   0.41165367  -0.58379805
O    3.46520291  -0.19718646   1.87077077
H    2.79401036   0.43627657   2.12465460
H    3.51295029  -0.12710508   0.91733454
O   -0.03576092   3.68974340   1.38792002
H    0.42099905   2.97834876   1.83682965
H    0.22499190   3.60156588   0.47115149
O    1.27087109   1.42744425   2.39384050
H    0.68463875   0.82676514   2.85400144
H    1.14290325   1.22483290   1.46712332
O   -1.97814161   2.40019831  -1.91180845
H   -2.27508132   2.46754827  -1.00432697
H   -1.66519861   1.49949801  -1.99569823
O   -2.40490210   2.40556819   0.80794365
H   -1.64119992   2.90424688   1.09830619
H   -2.12608475   1.49104046   0.85411461
O   -2.88389267  -1.99717939   3.48705920
H   -2.03606402  -1.55290260   3.49310488
H   -3.16478094  -1.96576146   2.57253936
O   -1.49543109  -3.65769689  -0.25353672
H   -0.73410117  -3.07767571  -0.26710276
H   -2.13191587  -3.20535188   0.30009038
O    0.57869463   3.10894669  -1.25891697
H    0.74370412   2.26704115  -0.83441871
H   -0.30307080   3.02590858  -1.62199581
S   -0.25721730  -0.27124510  -0.32214759
O    0.82424663   0.73525195  -0.12849984
O    0.31727838  -1.64256792  -0.22453387
O   -1.29664768  -0.09213595   0.73028029
O   -0.87374655  -0.08552848  -1.66583692
