53
Energy:  -1380.48008914
O   -0.92611342  -1.16364119   3.31715012
H   -1.06118244  -0.75245315   2.46338633
H   -0.05343751  -1.55284842   3.26070232
O   -3.41728971  -1.14541971   0.35096272
H   -2.58477226  -0.72216553   0.56073035
H   -3.51498083  -1.02770612  -0.59393505
O   -3.36736070  -0.70097373  -2.36155629
H   -2.64154572  -1.32385256  -2.39958811
H   -2.94524961   0.15696825  -2.31695107
O    2.36335113   2.18684629  -1.64636687
H    1.92555029   1.90677206  -0.84255054
H    2.37544406   1.40473116  -2.19807470
O    2.26460378  -0.24293906  -2.84042151
H    2.77805745  -0.74769771  -2.20969503
H    1.38463464  -0.21370448  -2.46487990
O   -1.14235312  -2.28089801  -2.26467837
H   -0.98038127  -2.86313797  -1.52238893
H   -0.66589155  -1.47914953  -2.04923561
O    1.72284486  -1.77572728   3.04828536
H    1.77925565  -0.84568268   3.26752658
H    1.57123042  -1.79075969   2.10328857
O    3.48783259  -1.41503242  -0.66768782
H    2.63634315  -1.59011014  -0.26700669
H    3.78429927  -0.60320778  -0.25625118
O    3.90256124   1.08904675   0.39908115
H    3.01614662   1.01352769   0.75234855
H    3.79664267   1.58950512  -0.40996429
O    0.09864909   3.61166944   0.54778512
H    0.51823529   2.75996594   0.66935992
H    0.09418417   3.74386014  -0.40023256
O    1.09495774   0.89590547   3.37162397
H    0.24012308   0.47549135   3.46512006
H    1.15489170   1.11357836   2.44143136
O   -1.89657750   1.64748948  -2.05871390
H   -2.18179851   1.92390620  -1.18780942
H   -1.19081002   1.02246801  -1.89296627
O   -2.30781088   2.32858050   0.55823766
H   -1.53979825   2.89248853   0.64986833
H   -1.99358094   1.45523064   0.79222787
O   -2.40403279  -3.09374158   1.97644947
H   -1.91135777  -2.51267413   2.55598705
H   -2.87422608  -2.50329570   1.38778677
O   -0.47300941  -3.62275327   0.06511915
H   -1.14903225  -3.51052851   0.73342339
H    0.14117175  -2.90558655   0.22223452
O    0.06395867   3.59880372  -2.19052710
H    0.88096013   3.10258087  -2.14049362
H   -0.61893201   2.93103485  -2.25358987
S    0.28800246  -0.09465339   0.15595504
O    1.12652818   1.06383668   0.57413607
O    0.99964537  -1.36402559   0.47589034
O   -1.01103841  -0.05625477   0.88473373
O    0.03687470  -0.02216989  -1.31093998
