49
Energy:  -1906.74535236
O    0.43147308  -1.91069258   0.19864297
H   -0.36920061  -2.40066280   0.01133927
H    1.08911766  -2.29490494  -0.38111243
O    0.53767156  -0.84437355  -3.22892176
H   -0.34310877  -1.21584557  -3.27858455
H    0.73040913  -0.56338436  -4.12342115
O    1.40977115  -0.66767014   2.70364589
H    1.05606557  -1.16414548   3.44164078
H    2.31678837  -0.48571395   2.94949863
O   -1.92579148  -3.07336368  -0.54010555
H   -2.57918358  -2.54901132  -0.07710964
H   -2.18257438  -3.97999788  -0.37185329
O    1.14989395   1.95275410   1.46865665
H    1.90620089   2.40197316   1.84606080
H    0.43893275   2.59120112   1.52479425
O    2.41540164  -2.21135028  -1.67254941
H    1.90905019  -1.87131327  -2.41025862
H    2.96972434  -2.89148664  -2.05513630
O    2.73174053  -0.17812507   0.19700505
H    3.01138597  -0.78472061  -0.48861302
H    3.49069328  -0.10338183   0.77548238
O   -1.15547065   0.21089777   1.50754647
H   -1.95422743  -0.27634696   1.30552655
H   -1.45671293   1.10134492   1.68807019
O   -3.58617049   0.22266466  -1.82218351
H   -3.11402793  -0.42026376  -2.35129248
H   -4.41396893   0.35280279  -2.28483419
O   -3.40185234  -1.06662801   0.61363850
H   -3.62904830  -0.58728755  -0.18313409
H   -4.22905860  -1.14923123   1.08812596
O    3.45279344   2.97975418   2.63273866
H    4.03100188   3.54016642   2.11520126
H    3.40042425   3.41138969   3.48548722
O   -2.05487222  -1.78462371  -2.99216654
H   -2.02657639  -2.37199649  -2.23690208
H   -2.42225097  -2.31775492  -3.69717421
O    4.01372781   0.24472841   2.63644243
H    4.82593502  -0.05069467   3.04787469
H    4.01883857   1.19510396   2.75042503
O    0.19166756   0.69600289  -1.00175781
H    0.34827384   0.26325627  -1.84106508
H   -0.48388481   1.34747877  -1.19001303
O   -1.93557859   2.38390178  -1.28596439
H   -2.60307717   1.73348291  -1.50421376
H   -2.06227649   3.08251912  -1.92792490
O   -1.43879587   2.93779408   1.40424910
H   -1.74970000   2.97635296   0.49976932
H   -1.91679509   3.63565887   1.85228185
Ca   0.79065495   0.01454777   0.85161424
