49
Energy:  -1900.42797894
O   -0.74588998  -1.77674141  -0.87891149
H   -0.65408364  -2.64817734  -0.49368055
H   -1.26092417  -1.91851515  -1.67318590
O   -0.38245670  -4.15527608   0.33088249
H   -0.94541206  -4.92693466   0.26878459
H    0.38776363  -4.45818849   0.81175312
O   -1.71810214   3.37601359   3.79318030
H   -2.43974306   4.00360772   3.83307805
H   -1.32134241   3.41086930   4.66358172
O   -2.03620947  -0.96915841  -3.24750538
H   -2.31442958  -1.40490961  -4.05307742
H   -2.79827699  -0.45759408  -2.97586798
O    1.99302064  -0.76900863  -0.45168379
H    2.73167028  -0.22615406  -0.72725133
H    2.34178416  -1.30526746   0.26037121
O    0.04959138  -0.47510949   1.62916285
H    0.65738316  -1.04316158   2.10259483
H   -0.57445021  -0.18421117   2.29413060
O    2.32656595  -2.11082805   1.95284147
H    2.20334009  -3.05923360   1.91316605
H    3.04297337  -1.98775083   2.57561290
O    0.94995749   1.84292209   0.05562670
H    1.82882961   2.08264430  -0.23822514
H    0.67722763   2.57021933   0.61499152
O    0.13640263   0.48910697  -2.38098761
H    0.78173084   0.88149676  -2.96904680
H   -0.50763695   0.08814521  -2.96466093
O   -1.79925427   0.82609540  -0.14398671
H   -2.56599724   0.86557343  -0.71563218
H   -2.14591634   0.98562749   0.73385540
O    0.05860098   3.78960750   1.68987373
H   -0.53159988   3.71060855   2.43930949
H    0.31526572   4.71172648   1.68268756
O    2.21657172   1.61000575  -3.84520029
H    2.10557582   2.47832163  -4.23242024
H    2.64130135   1.09411985  -4.53054570
O    3.37254395   1.48423925  -1.30726930
H    3.15739753   1.60723434  -2.23183194
H    4.26766032   1.81281715  -1.22339382
O    1.89912812  -4.84317621   1.76974016
H    1.73712173  -5.33160798   2.57684621
H    2.52996278  -5.37815591   1.28799728
O   -2.19140867   0.91288457   2.60877309
H   -2.04597774   1.75489093   3.04017427
H   -2.91903301   0.51910317   3.09015742
O   -3.88312123   0.70892636  -1.98811165
H   -4.12611879   1.51084813  -2.45082701
H   -4.71837946   0.31066681  -1.74323440
Ca   0.09260362   0.02631321  -0.36863197
