49
Energy:  -1899.95561368
O    0.36780158  -1.84761232   0.42147714
H   -0.45413158  -2.31511673   0.27282535
H    1.00483995  -2.30056748  -0.13101320
O    0.52262438  -1.18436447  -3.04527442
H   -0.35764668  -1.56015744  -3.05686518
H    0.71258737  -0.98975123  -3.96302799
O    1.34187126  -0.39136667   2.80512772
H    1.09813484  -1.09989410   3.40078978
H    2.06920528   0.05076693   3.24300322
O   -2.02805790  -3.00366845  -0.19617611
H   -2.67600637  -2.41236342   0.18690742
H   -2.29545337  -3.87487010   0.09663645
O    1.24427790   2.08435392   1.27178706
H    2.11999987   2.47016598   1.24960720
H    0.65103661   2.83555007   1.27277248
O    2.34605478  -2.42897795  -1.38415801
H    1.86110389  -2.15481226  -2.16254587
H    2.84817270  -3.19190990  -1.67059174
O    2.72054349  -0.16889159   0.22962010
H    3.03425462  -0.84341210  -0.37274130
H    3.42182632   0.48236442   0.24693603
O   -1.15694757   0.47093441   1.46582334
H   -1.97724288   0.00526664   1.30303215
H   -1.40684323   1.39450116   1.49425683
O   -3.59059648   0.14701852  -1.93743118
H   -3.13112428  -0.57921817  -2.35897289
H   -4.39919728   0.24373084  -2.44046530
O   -3.44727874  -0.81654335   0.67129872
H   -3.67697222  -0.43427049  -0.17566068
H   -4.26382980  -0.80193925   1.17056110
O    3.48694079   0.99982320   3.83257031
H    4.22990174   0.50029117   4.17125695
H    3.31778012   1.66228497   4.50246651
O   -2.08901737  -2.02304322  -2.78610890
H   -2.10425665  -2.51632101  -1.96594024
H   -2.41715214  -2.63800164  -3.44214667
O    4.03868460   2.17878767   1.06303088
H    4.30504487   1.97933206   1.96052825
H    4.72501954   2.75817834   0.73214925
O    0.22161584   0.63707727  -1.03925150
H    0.34884819   0.09576791  -1.81837149
H   -0.43670061   1.28135909  -1.29954410
O   -1.87215456   2.32041503  -1.57214862
H   -2.53847014   1.65823649  -1.75592835
H   -1.97338850   2.96385661  -2.27355184
O   -1.35689018   3.16214116   1.02782310
H   -1.65636840   3.11174908   0.12007573
H   -1.83382537   3.90544202   1.39696874
Ca   0.78072443   0.11660101   0.88711343
