49
Energy:  -1899.36439838
O    2.16016360  -1.52164630   0.90137338
H    2.33641403  -2.34121647   0.43934267
H    2.24569873  -1.74541056   1.82811237
O    0.60167834   1.11687993  -3.53434893
H   -0.16035930   0.53854540  -3.56690132
H    0.91495095   1.15217254  -4.43814457
O    1.53658792  -1.53503839   3.61798547
H    1.62601704  -2.18116452   4.31852476
H    1.82699738  -0.71235078   4.01178657
O   -2.93156279  -1.84982236   1.57468885
H   -3.28403960  -2.57228076   2.09434817
H   -3.69512198  -1.47524805   1.13548127
O    1.57559502   1.28315671   1.53404574
H    1.99377874   2.06045404   1.16369039
H    1.79705101   1.31196911   2.46482978
O    1.89856885  -3.65882744  -0.88924018
H    2.57720480  -3.79671155  -1.55005261
H    1.65229251  -4.54080486  -0.61050079
O    2.61788893   3.07864316  -0.27103294
H    1.90947924   3.46319351  -0.78727764
H    3.31290628   3.73654411  -0.28971638
O    0.03808896  -1.56340258  -1.02670349
H    0.47417774  -2.40173616  -1.17920011
H   -0.52119253  -1.44078386  -1.79377632
O   -3.21660172   0.66423205  -1.37526199
H   -3.84986316   0.17695054  -0.84822450
H   -3.71826659   1.39344850  -1.73968974
O   -5.05022444  -0.68992431   0.20154089
H   -5.61125365  -0.16443150   0.77192266
H   -5.64840972  -1.30484843  -0.22304661
O    2.23115994   1.09123552   4.22252635
H    3.13635235   1.24966885   4.49040211
H    1.70378079   1.55619632   4.87207583
O   -1.50499478  -0.67203847  -3.11413096
H   -2.22358091  -0.25420718  -2.63949127
H   -1.93327850  -1.15724191  -3.81938448
O   -0.45548293  -0.81937466   1.80313099
H   -0.08216365  -1.15229066   2.61923852
H   -1.34401007  -1.17483219   1.78309816
O    1.97035700   0.56219557  -1.21778204
H    1.65588613   0.66530681  -2.11595128
H    2.50894501   1.33791683  -1.06154077
O   -0.70069146   1.17390390  -0.35534686
H   -1.62095939   1.03329973  -0.57798839
H   -0.47872522   2.00851411  -0.76812846
O    0.25821329   3.30552148  -1.78998747
H    0.35892098   2.78115080  -2.58442136
H   -0.11593503   4.13243161  -2.09406725
Ca   0.75103567  -0.14569842   0.29272040
