49
Energy:  -1899.66855153
O    0.81903430  -1.75640867   0.57532866
H    0.25020442  -2.52552239   0.60892153
H    1.66765518  -2.07178961   0.88614905
O    1.17989385   0.08322054  -4.43884473
H    1.69297417   0.70648605  -4.95316034
H    1.17808929  -0.71712684  -4.96389013
O   -1.08829658   2.19707645   3.14488606
H   -1.40049936   2.42158387   4.02144621
H   -0.30419393   2.73281256   3.02487894
O   -0.90646794  -3.82422730   0.56323800
H   -1.77213025  -3.89558692   0.96544246
H   -0.70497937  -4.71225283   0.26820433
O    1.60228054   1.04302868   0.95088077
H    2.53462824   0.87982916   0.80831313
H    1.57410473   1.87144215   1.42959685
O   -1.28276576   0.93099960  -3.44060658
H   -0.51540113   0.69621012  -3.96238937
H   -1.93531346   1.20699497  -4.08422128
O    3.86920881  -0.13347043  -0.13497588
H    3.91847858  -0.95880684   0.34733536
H    4.78221055   0.11920984  -0.27213402
O   -1.21324909   0.21301056   1.34162665
H   -1.26800750   0.85164437   2.05252764
H   -2.07351745  -0.20652943   1.32912102
O   -3.38662297  -1.28916521   0.47684644
H   -3.46880227  -2.15949608   0.86672152
H   -4.28762340  -0.97617649   0.39642171
O   -3.49217945  -3.82526051   1.58830383
H   -4.09880587  -4.45862100   1.20477974
H   -3.59305679  -3.93826493   2.53344171
O    1.15730261   3.47950365   2.11473958
H    0.68867966   3.98922427   1.45382411
H    1.70853822   4.11950068   2.56504496
O   -1.27442070  -0.85339980  -1.30523922
H   -2.08889316  -1.18469390  -0.92693949
H   -1.53392854  -0.48765054  -2.15088395
O    3.40826414  -2.46863308   1.30101997
H    3.76150588  -3.28894529   0.95672361
H    3.63498967  -2.48124783   2.23089537
O    1.55623298  -0.11023458  -1.69122146
H    2.48742243  -0.16143821  -1.47559155
H    1.53246305  -0.08447656  -2.64777955
O   -0.43758890   1.86929025  -0.95460404
H   -0.79906582   1.88656003  -1.84075755
H   -0.47245432   2.78045136  -0.66339676
O   -0.43393126   4.46298897   0.04649407
H   -0.10449372   5.18792354  -0.48470517
H   -1.26444676   4.78217657   0.39947442
Ca   0.17494853   0.05443073  -0.15405630
