49
Energy:  -1899.50086701
O    1.85313303  -3.10835983  -0.09746452
H    2.22269049  -3.75152732   0.50751046
H    2.01989622  -3.47295327  -0.96665581
O    0.48711271  -2.11630775  -3.38789355
H    0.15446305  -2.30722426  -4.26489237
H    1.12058178  -2.81267887  -3.21464219
O    0.27798781   0.60922015   2.11832522
H    1.09174861   0.77244575   2.59517175
H   -0.38920534   0.53484672   2.80064021
O   -2.80919864  -2.78386653   1.27808750
H   -3.31855701  -3.34385036   0.69225134
H   -2.75005549  -3.28096751   2.09394567
O    0.83888008   2.26418670  -0.20669118
H    1.50076489   2.81030207   0.21745308
H    0.65112228   2.71183582  -1.03166943
O    2.30368607  -4.09026298  -2.65068802
H    3.17589213  -4.00504377  -3.03568948
H    2.03990214  -4.98845694  -2.85043161
O    2.85794215   3.60006026   1.15984463
H    2.63267147   4.32783867   1.73934748
H    3.62948549   3.90395081   0.68171990
O   -1.80496572   0.98983921   0.08276212
H   -2.21124760   1.65013293  -0.47864602
H   -2.52063479   0.66728987   0.63049523
O   -3.67151539  -0.18005620   1.70737517
H   -3.54728945  -1.12219327   1.59258189
H   -4.61856306  -0.07172547   1.79453601
O   -1.82838799   0.29810847   3.74478876
H   -2.63105483   0.18913497   3.23480584
H   -2.13137264   0.44301129   4.64113430
O    3.03971039   1.07177674   2.32703762
H    3.14108942   1.98207667   2.04899414
H    3.71281212   0.94891953   2.99641944
O   -0.46358225  -1.62630112   0.33968783
H   -1.25782912  -2.06619763   0.64282942
H    0.16477516  -2.33477087   0.20015493
O    2.09788014  -0.35833438   0.14704565
H    2.32617960  -1.28290060   0.05066873
H    2.70184763  -0.03018199   0.81320714
O    0.08475185   0.12402041  -1.94997584
H    0.03286639   0.86297311  -2.55618426
H    0.21412172  -0.63940893  -2.51271105
O   -2.79563879   2.91930864  -1.66115531
H   -3.50371949   2.67726318  -2.25803685
H   -3.07051894   3.75781268  -1.29023248
O   -0.20705589   2.80221967  -2.69915239
H   -1.12805072   2.99333822  -2.52174308
H    0.00678763   3.33909804  -3.46221491
Ca   0.15259847   0.33367329   0.09066689
