49
Energy:  -1899.59396953
O   -3.99874189  -1.25436569  -1.71584518
H   -4.41758392  -0.97071636  -2.52846211
H   -4.70446945  -1.65730589  -1.21005901
O    1.78267747  -0.32339097   0.17849812
H    2.56733525  -0.02435566  -0.28098191
H    2.07427050  -1.08374803   0.68155130
O   -0.40978544   0.72653379   1.82479887
H   -0.32730215   0.26040301   2.65675467
H   -0.53122696   1.64270192   2.07403723
O   -1.68290200  -2.77230083  -1.98744984
H   -2.57368777  -2.42258187  -2.00816707
H   -1.74317129  -3.60988834  -2.44684795
O    3.74702271   0.67419032  -1.44516944
H    3.48528114   1.56950711  -1.65995084
H    4.69751096   0.72027770  -1.34182589
O   -0.61464352  -1.85811880   0.40603040
H    0.01128864  -2.38765636   0.90002510
H   -1.00456110  -2.46876730  -0.21951299
O    1.85353045  -2.64910859   4.36052182
H    1.58667230  -3.43606574   4.83561867
H    2.64829743  -2.35716424   4.80700338
O   -0.92206750   3.43640954   1.42000894
H   -0.78506895   4.26213046   1.88438832
H   -1.85575956   3.43166323   1.20922833
O    2.06905211   0.16372034  -3.66410927
H    2.84294394   0.07535322  -3.10776896
H    2.35935351  -0.13030283  -4.52753693
O   -2.23524319   0.46576730  -0.42059329
H   -2.72214128   1.23370047  -0.12152683
H   -2.89035542  -0.07870818  -0.85717807
O   -3.48302533   2.77546532   0.51212542
H   -4.15183375   2.69326745   1.19195676
H   -3.86220213   3.38015148  -0.12569231
O    2.13396943   2.73771686  -2.48705995
H    2.34161153   3.56567757  -2.92018540
H    2.03216130   2.11105873  -3.20341639
O    0.24359948   2.03015841  -0.64970738
H   -0.00495059   2.76408809  -0.08774480
H    0.85832816   2.40726381  -1.27909758
O    1.75830002  -2.72346968   1.59020238
H    1.81140503  -2.70685086   2.54578363
H    2.25412818  -3.50171115   1.33578836
O   -0.12624398  -0.72028222   4.07315544
H    0.55286396  -1.36972475   4.25555239
H   -0.59310143  -0.62170373   4.90294955
O   -0.04601699  -0.52541002  -2.07563486
H   -0.49129394  -1.31277726  -2.38870531
H    0.61999933  -0.34637862  -2.73941333
Ca  -0.21676403   0.09637432  -0.11565158
