49
Energy:  -1899.01217258
O    0.39856956  -1.49498574  -1.37563974
H    0.00693056  -2.34753067  -1.18585597
H    0.93636757  -1.64564015  -2.15301249
O    3.28288042   0.47894235  -2.19819699
H    4.08612829   0.84659024  -2.56678854
H    3.05985774  -0.24511973  -2.78319856
O    0.36571045   1.34453156   1.60974347
H    0.54230314   1.09060018   2.51559430
H    0.03695002   2.24136839   1.67164764
O   -0.76383703  -3.70608919  -0.15412024
H   -0.38393872  -4.58434911  -0.13027420
H   -1.70595887  -3.85427276  -0.23585095
O   -0.60505205   3.85790959   1.61415108
H   -0.49037929   4.51771330   2.29806706
H   -1.15769005   4.28455532   0.95932552
O    2.15861509  -1.70963337  -3.52652261
H    1.82427755  -1.56318025  -4.41139646
H    2.72122457  -2.47984801  -3.60697029
O    2.40180191  -0.25932507   0.32428279
H    2.98937084  -0.04791542  -0.40118297
H    2.97231732  -0.29726335   1.09194462
O   -0.03390496  -1.49539315   1.44533423
H    0.18512357  -1.47185961   2.37684082
H   -0.34404979  -2.38825572   1.29421026
O   -3.64685787  -1.37583168   0.29619230
H   -3.68807860  -2.30601779   0.07418669
H   -4.50598641  -1.18003911   0.67008435
O   -1.63153832   0.31565471  -0.27248008
H   -1.97424248   1.05451451  -0.77534379
H   -2.39971400  -0.22359576  -0.08447236
O    1.15381468  -0.32128738   3.70690206
H    2.10183187  -0.36573903   3.58232557
H    1.03550760  -0.33822455   4.65661171
O   -3.50997378  -4.08387611  -0.33038901
H   -3.91477346  -4.66941376   0.30954438
H   -3.91045740  -4.32695749  -1.16510822
O    3.78347282  -0.36545378   2.73909025
H    4.31375451  -1.13625038   2.94134202
H    4.32827857   0.37636469   3.00200451
O    0.75839776   1.43263959  -1.33475221
H    1.54508392   1.54236780  -1.86890243
H    0.12400873   2.04083325  -1.71407117
O   -1.71207394   2.64065323  -1.83500474
H   -2.17673283   2.73810221  -2.66616517
H   -1.89123833   3.45394700  -1.36310940
O   -2.18129707   4.96382402  -0.39799957
H   -1.84741518   5.78805949  -0.75210497
H   -3.07703677   5.16452307  -0.12670247
Ca   0.36120011  -0.01322556   0.07511229
