49
Energy:  -1899.87171136
O   -1.23442206   1.81695391   0.36028192
H   -1.28930720   2.04276410   1.28884491
H   -1.41373825   2.63827672  -0.09743675
O    2.50395705  -2.78237063   0.29924132
H    3.10010162  -3.52683164   0.21786995
H    2.90954971  -2.22126207   0.96021304
O    5.34926116   0.55636059   0.99999599
H    6.16466164   0.07086392   0.87490846
H    5.62634201   1.40749636   1.33915075
O    3.66491352   0.66460944  -1.22008565
H    4.21988415   0.59377135  -1.99675894
H    4.27884831   0.66542165  -0.48570478
O   -3.19770376  -2.04612572  -3.00570885
H   -2.90909746  -2.45198313  -3.82315487
H   -4.14172406  -1.93151116  -3.11489234
O   -2.02120096  -0.94383672   0.87019102
H   -2.44923181  -0.81868076   1.71716057
H   -2.33402787  -1.79608886   0.56681424
O   -1.02307897   1.52854473   3.11316236
H   -1.74353507   0.96251960   3.39027320
H   -0.88954955   2.12504648   3.84976768
O    0.67623533   0.00683618   1.51372720
H    0.35735010   0.48018527   2.28215722
H    1.56186454  -0.26772980   1.75143769
O   -1.64206056   4.07526639  -1.21246036
H   -1.11883016   4.86289889  -1.06381031
H   -2.53221663   4.40038016  -1.34720106
O    0.98272046   0.88569445  -1.28026613
H    0.78030983   1.44814676  -2.02786842
H    1.93804438   0.82590454  -1.27662908
O   -0.65133292   2.26096322  -3.08872503
H   -0.99703659   3.01667277  -2.61372619
H   -0.53936650   2.57268637  -3.98679187
O    3.23193639  -0.82680982   2.13358919
H    3.97544024  -0.33523157   1.78461255
H    3.51317020  -1.09944518   3.00697877
O   -3.04766308  -0.36671242   3.38815669
H   -3.94810667  -0.05175859   3.46713319
H   -2.95664917  -1.01173715   4.08950640
O   -2.28562919  -3.23725961  -0.65571725
H   -2.70551048  -3.01172750  -1.48581773
H   -2.53853710  -4.14690725  -0.49820341
O    0.17346012  -1.91013934  -0.68167289
H    1.00756302  -2.30125976  -0.42180944
H   -0.42405193  -2.65316196  -0.76610390
O   -1.67742366  -0.00596529  -1.88576440
H   -1.53593990   0.68977746  -2.52775834
H   -2.22870009  -0.64315825  -2.33997940
Ca  -0.48708119  -0.03770763  -0.19050248
