49
Energy:  -1900.23681372
O   -0.07279961   3.98196705  -0.84689602
H    0.15369792   4.90459868  -0.72992770
H   -0.89043594   3.99677891  -1.34437294
O   -1.07509316  -1.06038999   0.51414192
H   -1.27248113  -1.19019229   1.44173084
H   -1.80787508  -1.46899985   0.05338114
O    0.48934514  -1.16590771  -2.00405825
H    0.01178801  -1.86356442  -2.45288578
H    1.30944725  -1.08476694  -2.49096744
O   -1.60757449   0.81202763  -1.59376924
H   -1.97530678   1.65076342  -1.87220610
H   -2.30489960   0.17750721  -1.75915779
O    2.94441400  -0.25947080  -2.89442124
H    3.43753737  -0.32117036  -3.71250092
H    3.58821178  -0.44717594  -2.21139632
O   -0.78349226   1.33123598   3.45320097
H   -1.29458286   0.52419501   3.51405421
H   -1.06738453   1.85229576   4.20428933
O   -1.16151701  -3.07640834  -3.16489191
H   -1.33457401  -3.04831577  -4.10589878
H   -1.01044775  -4.00258763  -2.97620742
O    1.35082759  -0.43750966   3.06695538
H    1.19557636  -1.15226674   3.68441083
H    0.82992278   0.29026848   3.40640936
O   -1.76298430  -1.26658824   3.19989480
H   -2.60741339  -1.58437018   3.51956027
H   -1.11551175  -1.72830544   3.73265025
O   -2.88984757  -1.67200997  -1.49276324
H   -3.80460118  -1.95388962  -1.49400664
H   -2.45816972  -2.25519084  -2.11709181
O   -0.26882623   1.75017808   0.80989705
H   -0.46406379   1.75664413   1.74695218
H   -0.23643718   2.67498385   0.56511739
O    4.36481175  -0.72042772  -0.54501860
H    4.76810440  -1.57921561  -0.41825006
H    5.04199747  -0.09637591  -0.28384686
O    1.19435790   1.60966131  -1.66238680
H    1.91677139   1.44325706  -2.26791155
H    1.10793212   2.56284418  -1.64807371
O    1.79957562  -0.31702764   0.44064380
H    1.78832351  -0.40444084   1.39377766
H    2.71179527  -0.47287903   0.19610854
O    0.25911087  -2.41202695   4.73757735
H    0.51180593  -3.33133099   4.65238850
H    0.31497081  -2.23378762   5.67637565
O   -2.42578510   3.39143724  -2.25066644
H   -2.44676466   3.65388860  -3.17094411
H   -3.23401622   3.74708828  -1.88119839
Ca   0.10035775   0.25728824  -0.55363859
