49
Energy:  -1901.65638758
O   -2.03418836  -5.39171147  -0.15241582
H   -1.59045578  -6.20616541   0.08422320
H   -2.90652698  -5.66687608  -0.43444704
O    1.44988823   0.69801216  -1.33336705
H    0.95834989   1.22626348  -1.96231256
H    2.25706840   1.19068641  -1.18516412
O    2.03097397  -1.32317453   3.75469477
H    2.54524815  -2.08264369   4.02848393
H    1.87491434  -0.83495152   4.56309785
O    0.01147502  -1.53809731   1.80320552
H    0.48776412  -1.63558366   2.62775203
H   -0.69719361  -2.17919009   1.85816614
O   -0.48229341   4.30789354  -0.89950976
H   -0.33330728   3.76689221  -1.67497901
H   -0.59873401   5.19352302  -1.24350665
O    1.47665110  -2.17366864  -0.64341922
H    0.87910076  -2.80597360  -1.04261327
H    2.34982809  -2.52283772  -0.82195422
O    2.42572430  -0.12764482   1.24847216
H    2.60563808  -0.40056628   2.14812584
H    3.08370135   0.54289550   1.06496816
O   -2.40534601   2.64177808   0.21899529
H   -3.10494321   3.04243665   0.73500721
H   -1.88789780   3.38158786  -0.09906241
O   -2.56216451   1.10115739  -2.05227922
H   -3.39898668   1.04901725  -2.51406045
H   -2.73872045   1.66397306  -1.29842355
O   -1.97010438  -3.35160004   1.73734874
H   -2.03796585  -4.11093852   1.15852948
H   -2.65547771  -3.48666386   2.39175917
O    1.40848869   3.56172211   0.97418525
H    0.83434141   3.98030684   0.33280115
H    1.53370400   4.22484409   1.65302412
O   -0.72469907  -3.47613083  -1.67303924
H   -1.16813526  -4.15828660  -1.16879753
H   -0.76229143  -3.78425748  -2.57850964
O    3.49736075   2.05647907  -0.08105240
H    4.34563132   2.44974842  -0.28601120
H    2.97808955   2.77771202   0.27449268
O   -1.03600578  -0.82776997  -0.87140553
H   -1.66323289  -0.25456242  -1.31214481
H   -1.22821929  -1.70119607  -1.21259852
O   -0.19725779   2.31009602  -2.82364156
H   -1.07155446   1.92512653  -2.76334506
H   -0.08027735   2.49518775  -3.75546155
O   -0.12479841   1.28969049   0.96523814
H   -1.01132127   1.63647179   0.86497946
H    0.41818316   2.06159332   1.12514089
Ca   0.68012910  -0.45338029   0.19954780
