49
Energy:  -1899.42893404
O   -3.99546012  -0.78101932   1.73102848
H   -4.42178488  -1.63548298   1.79714129
H   -4.71794908  -0.15362699   1.70612052
O    2.85774706  -2.58109269   0.07347785
H    3.67480959  -2.97921793  -0.22675034
H    2.61493623  -3.08712669   0.84885152
O   -0.41408480   1.30138993   1.60357225
H   -0.91477988   1.04966227   2.37956805
H   -0.22515902   2.23106437   1.73102555
O   -0.01355592  -2.19288914  -3.78112724
H   -0.84531224  -2.63055820  -3.96239792
H    0.61961988  -2.63809832  -4.34425160
O    0.15046805   1.23910531  -1.28097616
H    0.00587403   1.10592897  -2.21777308
H    0.42631698   2.15280521  -1.20823207
O    0.55043843  -1.66144431  -1.12126022
H    1.34559826  -2.15760682  -0.92690112
H    0.32979407  -1.90430818  -2.02046267
O    2.05694456   0.05632802   0.59694672
H    2.58007428   0.85641559   0.54768181
H    2.69432767  -0.65275051   0.51219858
O    0.16310497   4.00098773   1.86407863
H    0.89893871   4.21850881   2.43632432
H   -0.51701140   4.63300369   2.09695068
O   -2.76650080  -0.25343109  -2.68756846
H   -2.11382474   0.14829097  -3.26103615
H   -3.59321138  -0.15693260  -3.16029408
O   -1.84229298  -0.24925662   3.40594877
H   -2.69942912  -0.42758962   3.01897743
H   -2.00757091  -0.21091358   4.34799169
O    1.02252638   3.78161527  -0.76632687
H    0.69283412   4.04933971   0.09149507
H    1.00330965   4.58181824  -1.29124380
O   -0.39933994   0.55760904  -3.87570678
H   -0.17400142  -0.35770118  -4.04202454
H   -0.23137425   1.00102091  -4.70721462
O    3.21852095   2.45805937   0.31566790
H    2.65760119   3.06582203  -0.16622982
H    4.08584477   2.86235343   0.29269938
O    1.67453290  -3.65205534   2.35686863
H    2.19557909  -3.62234744   3.15927760
H    1.35820348  -4.55422715   2.30939671
O   -0.04893803  -1.55557941   1.75670550
H   -0.60315200  -1.37147421   2.51511435
H    0.48591933  -2.30235182   2.02594596
O   -1.95788602  -0.45213512  -0.13391697
H   -2.70641177  -0.59254155   0.44593394
H   -2.33964037  -0.39937193  -1.01010845
Ca   0.05063880  -0.16563701   0.21822893
