49
Energy:  -1899.53959871
O    3.41362442  -2.15236629  -0.58869601
H    3.02437335  -2.58987443   0.16847113
H    4.23418837  -2.62107526  -0.74107234
O   -2.52767393  -1.80567728   1.59775028
H   -2.16783252  -1.36599544   2.36809169
H   -3.40468533  -2.07998045   1.86578128
O   -2.22826438   2.31516829   3.80912469
H   -1.71396246   2.91615995   4.34813713
H   -3.09915650   2.32201429   4.20627944
O    0.60131311  -0.49584158   1.23373514
H    1.13183139  -1.26679504   1.43476489
H    0.11006597  -0.32631490   2.03758140
O    0.31583487   2.15236507  -0.11146332
H   -0.39974055   2.60821570   0.33168886
H    0.90722283   2.85040793  -0.39293852
O   -1.82127110   0.25372998  -0.08807004
H   -2.21432651   1.05752223   0.25201425
H   -2.25100442  -0.44868557   0.39996020
O    2.13548028   0.12048482  -1.18753041
H    2.54218024   0.61854217  -1.89659026
H    2.72280567  -0.62245664  -1.04853859
O   -0.70487215  -3.68650257   0.59861828
H   -1.41447974  -3.20754086   1.02673578
H   -1.03093647  -4.58344322   0.52505613
O   -1.10999670  -0.20044864   3.38997831
H   -1.49556844   0.65335889   3.58639364
H   -0.82905431  -0.53825869   4.24038268
O    2.03287106   4.04815760  -1.20164897
H    2.86998219   4.22957654  -0.77437392
H    1.70534208   4.90876911  -1.46300014
O   -2.12631487   2.74905173   1.06690443
H   -2.72571754   3.45459331   0.82367747
H   -2.19591989   2.69286915   2.01991572
O    2.08500685   2.09208183  -3.19340071
H    2.55421011   2.29439742  -4.00281319
H    2.16957279   2.88412403  -2.66259982
O   -0.26298100   0.74822071  -2.60608815
H    0.37689252   1.29015098  -3.06772146
H   -0.58606644   0.13974356  -3.27062047
O   -0.94990433  -1.60138834  -3.95557879
H   -0.40606519  -1.95943764  -4.65719944
H   -1.84878604  -1.75498769  -4.24652684
O   -0.14648831  -1.77800569  -1.28046750
H   -0.31246343  -2.56412952  -0.76018543
H   -0.40405288  -2.02013331  -2.16999915
O    1.80608989  -2.92899496   1.56189160
H    2.19219085  -3.43392417   2.27757615
H    1.02520580  -3.42359259   1.31324511
Ca   0.15957939   0.16802523  -0.67136544
