49
Energy:  -1899.70973449
O    0.96606050  -4.64061356   2.44720838
H    0.50203200  -5.25745509   3.01326131
H    1.81062249  -5.05833676   2.27852461
O    1.69817895  -0.17615601   1.08894048
H    1.64343367  -0.81353059   1.80097169
H    2.55682706   0.23252920   1.19817269
O    4.05317479   1.29104392   1.32575068
H    4.81614731   1.01400662   0.81844888
H    4.40416748   1.50307393   2.19066642
O   -1.97008079   0.94318829  -3.64263720
H   -1.14911781   1.29691985  -3.98487342
H   -2.64212175   1.28038875  -4.23499574
O   -0.01743808   2.17837807   1.06791829
H    0.67121709   2.83860434   0.98989783
H   -0.81529460   2.68179355   1.22987406
O   -0.44325882  -3.71073323   0.24050041
H   -0.99318795  -4.41404585  -0.10469684
H    0.04926602  -4.11876189   0.95265471
O    0.77961033  -1.93151232   3.01630140
H    0.86235007  -2.87041111   2.84940311
H    0.93147846  -1.84068257   3.95700214
O   -2.77119180   2.68841443   0.99794039
H   -3.33294814   3.46315912   1.01873289
H   -3.18386146   2.07633505   1.60727973
O   -1.70767951   1.00255776  -0.92153769
H   -1.94174709   1.01665098  -1.84957088
H   -2.29926564   1.63590732  -0.51518065
O   -3.51977685   0.50127071   2.56983035
H   -4.33249724   0.05979487   2.32322034
H   -3.61185179   0.66700738   3.50806561
O    1.16779903   1.29710676  -1.38783659
H    1.71274239   2.04924051  -1.15639890
H    1.15568719   1.29497733  -2.34495759
O   -0.40963067  -1.41857068  -3.72360058
H   -1.19919949  -0.89240101  -3.84992717
H   -0.51629226  -2.15867807  -4.32117585
O    2.41474120   3.22563958   0.14804230
H    2.78401601   4.09774768   0.00913436
H    3.11590085   2.73334370   0.57495185
O   -0.00953769  -1.36844286  -1.01660517
H   -0.09603967  -1.50902332  -1.95946591
H   -0.14291497  -2.23458682  -0.63158959
O    0.81849760   1.07991450  -4.08328482
H    1.34608511   1.34262067  -4.83751870
H    0.68772907   0.13865822  -4.19803692
O   -1.11689693  -0.47507604   1.55677054
H   -1.96067725  -0.24476707   1.94564635
H   -0.73126142  -1.09866525   2.17211889
Ca   0.00318687   0.37965236   0.04441892
