49
Energy:  -1901.17308570
O    1.43186744  -3.72966458  -1.40181724
H    0.51530072  -3.99447762  -1.32428437
H    1.92214618  -4.55133818  -1.37515065
O   -1.36727286  -3.38123588  -1.67377607
H   -2.06142095  -4.00775433  -1.87838522
H   -1.06981193  -3.06549272  -2.52703752
O    0.17800072   0.16737118   2.04958494
H   -0.50546480   0.20737704   2.71854403
H    0.96027426  -0.11672038   2.52241889
O    1.52249903  -1.45390604   0.10301016
H    2.12399894  -1.53246734   0.84345450
H    1.61406338  -2.28135495  -0.36940505
O    0.28128434   0.06275910  -2.06933287
H    0.29807424  -0.66451337  -2.69144596
H    0.64455093   0.80292819  -2.55556219
O    0.37590390  -2.22795470  -3.55082470
H    0.51729820  -2.39856134  -4.48202439
H    1.00619735  -2.79365326  -3.10478977
O    1.77400072   1.44339440  -0.04540071
H    2.56410054   1.56610648   0.48082726
H    1.91107366   1.99416553  -0.81617565
O   -2.00042572   0.24650434   3.68982672
H   -2.11895609   0.16474020   4.63613376
H   -2.59295998  -0.40598935   3.31648104
O    1.37136363   2.56101397  -2.55051945
H    1.92221146   2.95138265  -3.22905522
H    0.62179836   3.15216968  -2.48038603
O   -3.56449132  -0.86505593   1.59682249
H   -3.80033395   0.05799848   1.50419059
H   -4.40292274  -1.32660901   1.61209814
O    2.74315879  -0.76194527   2.51271855
H    3.33274336  -0.02694701   2.34419725
H    3.16653372  -1.25257837   3.21717911
O   -1.38930654  -1.21361278  -0.01407448
H   -2.18704777  -1.19013907   0.51440423
H   -1.47822947  -2.00313489  -0.54790909
O    4.01496683   1.54482539   1.59663435
H    4.88692073   1.43584836   1.21709219
H    4.11217671   2.26638912   2.21802623
O   -1.13148559   1.70543299  -0.09138600
H   -1.85350867   1.86699289   0.51591369
H   -1.15723107   2.44602182  -0.69727146
O   -1.02553018   3.81366190  -1.90144304
H   -0.97273770   4.70447028  -1.55516969
H   -1.68995753   3.86233584  -2.58875592
O   -3.13051818   1.92446329   1.75449403
H   -3.72879987   2.64290549   1.95975406
H   -2.79233335   1.64343373   2.60472062
Ca   0.18314492   0.11273361  -0.01084078
