49
Energy:  -1899.95995461
O   -0.24976843  -1.80641035  -0.03268912
H   -0.14581810  -2.20758975  -0.89552239
H   -1.06393634  -2.17710999   0.30781675
O   -1.40820054  -1.23949446  -4.49389052
H   -2.29220451  -1.58808071  -4.60902719
H   -1.02844375  -1.25337667  -5.37242561
O    0.20652382  -0.46147596   2.55455915
H    0.76076156   0.01639673   3.17156001
H   -0.36945387  -0.98882864   3.10807581
O   -2.66854350  -1.94297001   1.33682227
H   -2.47058913  -2.06352434   2.26553782
H   -3.49967147  -2.39979557   1.20732876
O    0.82749547   1.97670758   1.16192745
H    1.23363721   2.23980850   1.98779586
H    0.39021547   2.76773518   0.84681891
O    2.50195509  -1.07823504  -2.20479953
H    1.89290589  -1.75706088  -2.49546498
H    3.24647714  -1.15218245  -2.80183432
O    2.30724576  -0.46485226   0.51173691
H    2.69982286  -0.79434788  -0.29668607
H    3.05110072  -0.30942017   1.09376141
O   -1.68807783   0.56540976   0.56075656
H   -2.34599889  -0.07836134   0.82330273
H   -2.17723459   1.21755756   0.05909855
O   -1.34510446   1.31812934  -3.33918446
H   -1.45808166   0.48126629  -3.78988196
H   -1.18921959   1.94972806  -4.04133459
O   -1.65096733  -2.00244839   3.92237459
H   -2.17714597  -1.59888301   4.61266647
H   -1.38934444  -2.84919298   4.28404974
O    2.05194574   1.26950012   3.62678397
H    2.19227859   1.70156519   4.46931487
H    2.91970745   0.95824338   3.36921708
O    0.19476469  -2.61080375  -2.64077971
H    0.22317469  -3.53045493  -2.90472369
H   -0.36357691  -2.19053393  -3.29488962
O    4.28121989   0.14881143   2.36789630
H    4.72880131  -0.56469030   2.82266877
H    4.98010252   0.75889505   2.13211485
O    0.47807755   0.61452604  -1.42365612
H    1.21415834   0.25620140  -1.91966051
H   -0.11732020   0.95603348  -2.09081880
O   -2.75245284   2.39317855  -1.17025626
H   -2.43966897   2.09668490  -2.02494311
H   -3.62876310   2.73797851  -1.34179389
O   -0.70240676   3.87791178   0.03741884
H   -1.49911435   3.58931876  -0.40778103
H   -0.75259647   4.83369587   0.02364897
Ca   0.31787956   0.09071430   0.56827151
