49
Energy:  -1899.47421312
O    1.11474149   2.38488144  -0.28517667
H    1.24248568   2.79703741   0.56924754
H    1.17229138   3.10692552  -0.91093398
O    2.66491056   0.39951730  -1.76275927
H    3.56198710   0.06971919  -1.81490065
H    2.52627450   0.85061427  -2.59553980
O   -2.52881513  -1.09671653  -2.42857719
H   -2.96953731  -1.11357426  -3.27811331
H   -3.24086391  -1.09019800  -1.78890861
O    1.62808349   2.55985764   2.46747172
H    2.06359683   3.20411541   3.02558633
H    0.94003541   2.18948384   3.02032335
O    1.08413626  -1.73638519  -0.42944439
H    1.37334830  -2.19076348   0.36183849
H    0.46131877  -2.33788980  -0.83751599
O   -1.05395046  -3.17148029  -1.31032913
H   -1.60432709  -2.63048016  -1.87657667
H   -1.11888042  -4.05117769  -1.68201237
O   -4.44188452  -1.29730759  -0.39593328
H   -5.06234997  -2.02231487  -0.47089281
H   -4.98300881  -0.54070666  -0.17016487
O    1.41490512   1.85674873  -3.75064273
H    1.40007336   2.76971389  -3.46340332
H    1.54237394   1.90528799  -4.69807478
O   -2.07749671  -1.94116823   0.97429300
H   -1.77209854  -2.57920247   0.32940842
H   -2.97781579  -1.74790898   0.71293450
O   -0.53043551   0.26343502   0.84575046
H   -0.59660835   0.65096830   1.71848809
H   -1.14058134  -0.47387946   0.86367458
O    2.35900346   0.24339150   1.18480532
H    2.41687488  -0.53716320   1.73581993
H    2.41410707   0.97541240   1.79908608
O    1.33537443   4.25581566  -2.32557666
H    2.11717840   4.80609999  -2.37249742
H    0.60900752   4.85595116  -2.49427860
O   -0.48126915   1.00551152   3.46830850
H   -1.09424341   1.41334171   4.08000200
H   -0.50579511   0.07441673   3.68897299
O   -0.65452142  -1.80734635   3.43286308
H   -0.94878427  -2.32388269   4.18308401
H   -1.28709893  -2.00526268   2.74227879
O   -0.20278954   0.36687375  -2.03927485
H   -1.04267513  -0.04569944  -2.24078763
H    0.04277210   0.81822086  -2.84687445
O    1.78293967  -2.25740478   2.19100970
H    2.31927879  -2.92525918   2.61825985
H    0.99290010  -2.20387255   2.72878625
Ca   1.08772470   0.32519627  -0.43313362
