49
Energy:  -1901.71997135
O    1.02712639  -3.30947909   2.22185981
H    1.59984575  -3.83198362   1.66042112
H    1.02956880  -3.76925764   3.06140109
O    0.12566548  -1.08092340  -1.44206084
H    0.89688108  -1.64564325  -1.49255682
H   -0.23455294  -1.08678425  -2.32887547
O   -0.56035246  -1.29025467   1.42310750
H   -0.04127459  -2.02674560   1.74617269
H   -1.41209238  -1.39237142   1.84777575
O   -3.27058148   0.56880037  -2.78094858
H   -2.80903860  -0.10503036  -3.28011004
H   -4.17235005   0.52789842  -3.09933879
O    1.87310605   0.08176266   0.50227711
H    2.53996358   0.69766340   0.80592027
H    2.37026485  -0.66550130   0.16961882
O    2.71137313  -4.61566160   0.43840002
H    2.34478526  -5.40342413   0.03680897
H    3.55043902  -4.89948400   0.80122938
O    3.61352130   2.10703328   1.28743319
H    4.38686233   2.30200325   0.75812969
H    3.93183077   2.11682665   2.19010424
O   -0.37287013   1.60487348   1.65238799
H    0.08313912   2.44540255   1.60998168
H   -0.99078799   1.70335707   2.37675692
O   -1.04727544   2.11316067  -3.55965604
H   -1.96673617   1.91225708  -3.38512362
H   -1.07436654   2.82983369  -4.19359429
O   -2.17025599   0.34805571  -0.29131576
H   -2.68086703   0.44145202  -1.09554543
H   -2.80863047   0.07611563   0.36804640
O    1.31682081   3.58987878   0.72298756
H    1.38057015   4.54235964   0.79333022
H    2.19366432   3.27391267   0.94103051
O   -0.99613204  -0.69032831  -3.90515463
H   -0.90085167  -1.14449141  -4.74234599
H   -0.80154438   0.22526119  -4.10531296
O    2.61555523  -2.19790527  -0.92017799
H    3.32016523  -2.23854460  -1.56678842
H    2.65863105  -3.03891548  -0.46511960
O   -3.16418047  -0.55961260   2.13196944
H   -3.95207360  -1.01999073   2.42094735
H   -3.05768066   0.15278371   2.76235118
O    0.20580496   1.82715588  -1.14567729
H   -0.14470140   2.04844228  -2.00846896
H    0.59769515   2.64133384  -0.82981627
O   -2.33541871   1.65662193   3.62399416
H   -2.09001825   1.49531711   4.53503270
H   -2.94854696   2.39042200   3.66692504
Ca  -0.15378655   0.23541980   0.11702343
