49
Energy:  -1900.54779033
O   -0.27971111   1.54780638   0.23095914
H   -0.63252064   2.05693499  -0.49879791
H   -0.50872751   2.05459057   1.01003110
O    0.64559252   1.37441111  -3.53081883
H    0.11906479   0.75282777  -4.03344647
H    1.25554953   1.74368979  -4.16942477
O   -0.32289271  -0.35107482   2.37141890
H   -0.12847109  -0.99377692   3.05359636
H   -0.57467318   0.43852476   2.85034578
O   -1.49888307  -1.04571877  -0.31944281
H   -1.63199933  -1.97597084  -0.50149500
H   -2.05463635  -0.59484938  -0.95512113
O    1.13381556   3.55970414   4.30380984
H    0.99645598   3.63713894   5.24793274
H    1.49205951   4.40816576   4.04303025
O    0.80073542  -2.39532729   0.72551774
H    0.36871817  -3.09565471   0.23650399
H    0.89684234  -2.74512302   1.61131583
O    1.02388324  -0.46286813  -1.52559886
H    1.05780806   0.25420950  -2.15875020
H    0.96291625  -1.25358667  -2.06158306
O   -0.86636252   2.35270292   2.81529564
H   -1.70540070   2.71692547   3.09741035
H   -0.21367991   2.82563177   3.33160520
O   -0.94876759  -3.68052620  -0.95766268
H   -1.37903672  -4.53310355  -1.02256398
H   -0.56524773  -3.53875676  -1.82313700
O    0.66437419  -2.74751774   3.48843923
H    0.06079103  -3.38653966   3.86734582
H    1.44922983  -2.80634761   4.03320754
O    2.20065374   0.17475018   1.03994945
H    3.06419063   0.13548023   0.62886095
H    2.35845902   0.58295566   1.89124118
O   -1.09095306  -0.61108420  -4.39144831
H   -1.80455297  -0.36396305  -3.80328324
H   -1.50681120  -0.70064323  -5.24892894
O    2.50743049   1.28888330   3.46924607
H    3.28386444   1.17985694   4.01833206
H    2.10000086   2.09465177   3.78700403
O    0.38378111  -2.58651241  -3.12682266
H    0.92644179  -3.09765575  -3.72722562
H   -0.15250553  -2.03610744  -3.69750896
O   -1.29788193   2.64499258  -2.05190665
H   -0.60637942   2.42092603  -2.67468293
H   -1.53609679   3.54566946  -2.27160347
O   -2.75345556   0.31213614  -2.34669717
H   -2.44250052   1.21567889  -2.29057850
H   -3.70279514   0.39045686  -2.44078269
Ca   0.32455556  -0.41237051   0.41831961
