49
Energy:  -1900.43761901
O    2.17010358  -3.00939183   2.11513684
H    2.02704293  -3.28442545   3.02074272
H    3.10324941  -3.15920393   1.96339018
O    1.17381055  -0.57129564   1.21871172
H    1.53783849  -1.38535326   1.56659921
H    1.58079748   0.11747415   1.74424922
O   -1.59207669   0.40081392   0.97750629
H   -2.42514621  -0.06979631   1.00494789
H   -1.66973731   1.06627461   1.66114563
O   -4.01311496  -0.19724987  -2.29506982
H   -4.26366086  -0.76228702  -3.02595396
H   -4.66680187   0.50197864  -2.29725313
O   -3.50069660  -1.46736652   0.13746244
H   -4.22760705  -1.93879297   0.54439012
H   -3.86908225  -1.10916765  -0.67013736
O    2.37139189  -3.02749667  -1.75119678
H    1.85566513  -3.65140410  -1.24031784
H    2.94486388  -3.57362300  -2.28888419
O    1.34279818  -0.55055808  -1.72605338
H    1.38929632  -0.14731445  -2.59292381
H    1.79576969  -1.38782297  -1.82623403
O    1.99511325   1.89735068   2.18985210
H    1.54484952   2.29815770   2.93338969
H    2.91369554   2.13995570   2.30639056
O   -0.82551592  -2.00547596  -0.36536040
H   -1.75692341  -2.16660364  -0.21452998
H   -0.41297261  -2.86227686  -0.25612628
O    0.62664262   3.07030822   4.29967591
H    0.68966721   2.70266149   5.18120618
H    0.72191992   4.01434143   4.42599052
O    0.65193939   1.84801040  -0.24395241
H    1.12411730   2.14857083   0.53254182
H    0.84774041   2.50413890  -0.91282401
O    0.55896637   1.20075585  -3.77267802
H    0.65626512   1.20467801  -4.72491193
H    0.83397885   2.07602795  -3.49973344
O    1.22063511   3.53324993  -2.38638913
H    0.66497199   4.29873260  -2.53304047
H    2.11242925   3.85543319  -2.51728228
O    0.68564849  -4.23635818   0.09998760
H    1.19781456  -4.00109441   0.87365983
H    0.50123293  -5.16929560   0.20884767
O   -1.63879254   2.31214279   2.87346414
H   -0.91130347   2.60187803   3.42395937
H   -2.40251933   2.77020393   3.22436759
O   -1.33201935   0.43575134  -1.91664178
H   -2.25277937   0.28380247  -2.12958399
H   -0.93912190   0.72219172  -2.74115093
Ca  -0.09357565  -0.08000939  -0.34007875
