49
Energy:  -1901.91079741
O    1.03577401  -0.64495388  -3.90757990
H    0.80821190  -0.65951955  -4.83722240
H    1.57272590   0.14068753  -3.80422570
O    1.63370807  -0.95726727   1.94057263
H    2.48716824  -0.77111528   2.33196121
H    1.17341384  -1.47301624   2.60266331
O   -0.32321131  -2.47409766   3.17259505
H   -0.53368519  -2.65077751   4.08950117
H   -0.32608866  -3.33559101   2.75539871
O    2.24645587  -2.71067275  -2.44461650
H    1.88165479  -2.20298774  -3.16946679
H    2.80228588  -3.36594984  -2.86639461
O    2.39144363   1.54372829  -2.77831373
H    1.77156997   2.22253726  -2.51146756
H    3.12572095   2.02551188  -3.15904097
O   -1.14032315  -0.68686776   1.18392129
H   -1.89508291  -0.09817176   1.18648589
H   -1.24264173  -1.21171890   1.97783189
O   -0.36086711  -0.19393668  -1.59545796
H   -1.03966010   0.46830556  -1.72548543
H   -0.03751131  -0.38235572  -2.47646372
O    0.44075252   3.15261205  -1.59730991
H    0.47879678   4.10758580  -1.65031585
H   -0.48470288   2.94204038  -1.72150221
O   -0.16575781  -4.66612362   1.45499824
H   -0.96982787  -5.14600735   1.25646665
H    0.47102536  -5.34578583   1.67590166
O    2.41672701  -0.44230271  -0.87683882
H    2.60984371   0.29883449  -1.45099337
H    2.71160466  -1.20934300  -1.36768320
O   -3.13707016   1.19944600   0.89311328
H   -3.11624589   1.87315576   1.57275537
H   -4.05120890   0.91718582   0.86292380
O   -0.26197650   2.44083360   2.83199735
H    0.20631131   2.88806471   3.53692480
H   -1.17107120   2.72380482   2.93051627
O   -2.08775009   1.92680742  -1.59072537
H   -2.78050317   2.14790900  -2.21317144
H   -2.54357064   1.80378810  -0.75806355
O    0.61122442  -2.59696249  -0.22497746
H    1.06687961  -2.94478089  -0.99154942
H    0.34073271  -3.37287650   0.26596402
O   -2.96760821   3.10464292   2.90502499
H   -3.18079573   4.01690093   2.70863696
H   -3.40951831   2.92836806   3.73561183
O    0.70046403   1.45204446   0.52664129
H    0.41827100   1.86086774   1.34484816
H    0.68829055   2.16338078  -0.11373695
Ca   0.64532989  -0.56835024   0.16666522
