49
Energy:  -1901.42017903
O   -1.41172325   0.33643156  -2.38310701
H   -1.31431981   0.12059339  -3.31055421
H   -2.32442543   0.61117029  -2.29521380
O    0.49888189  -3.07015618   1.17719170
H    0.21571550  -3.98335536   1.13119281
H    1.32446170  -3.05022340   0.69319531
O   -0.40033978   2.39118875   2.54826578
H   -0.33812561   3.19918090   3.05768694
H   -0.58151951   1.71152652   3.19746915
O    1.31292192  -0.60015499  -1.66743844
H    1.89242206  -1.26019299  -1.28696338
H    1.67375781  -0.43772997  -2.53901599
O   -0.86702714  -0.88815860   0.24564316
H   -0.47484898  -1.71970316   0.51202968
H   -1.58371703  -0.75142961   0.86523386
O   -0.85015293   0.16046018   4.10464387
H   -0.16220330  -0.49653352   3.99826510
H   -1.03244944   0.16707415   5.04430130
O    3.02824983  -0.53885779   1.91124697
H    2.48348207  -0.91997803   2.59987408
H    3.82658423  -0.26327046   2.36174187
O    1.18030600   1.09978969   0.73862527
H    1.91158314   0.61794265   1.12500466
H    0.83531864   1.62938373   1.45747555
O   -0.85128457  -0.14441685  -5.06398621
H   -1.25535159   0.40336978  -5.73695834
H   -0.92050372  -1.03556862  -5.40646115
O   -2.70342748  -0.28006402   2.10084300
H   -3.55735696  -0.58088622   2.41155555
H   -2.18996923  -0.15039451   2.89820006
O   -1.46102854   1.94480465  -0.00128216
H   -1.44181964   2.24377514   0.90782703
H   -2.38332109   1.99775552  -0.25189043
O    1.63258906   0.68991687  -4.10381530
H    0.88526773   0.41214667  -4.63351936
H    2.34335060   0.80680155  -4.73420236
O    0.75848616   2.20305034  -1.95691053
H    1.15353035   1.96671461  -2.79614671
H    0.94233442   3.13739236  -1.85976799
O    2.79988124  -2.34276562  -0.17151648
H    3.55500620  -2.88571139  -0.39785257
H    3.10992522  -1.78630174   0.54294312
O    1.12565406  -1.71666780   3.52987213
H    1.37231589  -2.30201672   4.24594226
H    0.83306565  -2.30205174   2.83133829
O   -3.79129023   1.48848483  -1.49979678
H   -4.51748056   0.95632672  -1.17470112
H   -4.21288312   2.21763050  -1.95459111
Ca  -0.07772299   0.66945009  -0.83869556
