49
Energy:  -1900.26053438
O   -2.10916961  -2.99650837   1.11335375
H   -2.45507400  -3.08894896   0.22563942
H   -2.51285091  -3.71244350   1.60397595
O    1.73966494  -0.01729728  -1.16348036
H    1.76739659  -0.29249771  -2.07984684
H    2.65549251  -0.01722027  -0.88510704
O    0.99121880   0.60665831   4.23308664
H    0.50643690   1.37283909   4.53998299
H    1.33191174   0.20271562   5.03120346
O   -2.35954851  -2.75718667  -1.69267820
H   -3.08849955  -3.08137188  -2.22160747
H   -1.58044169  -3.13548743  -2.10024774
O   -0.10970950   1.87604869   0.17499071
H   -0.12948183   2.51213976  -0.54001213
H   -0.61031149   2.28976858   0.87817302
O    0.32577916  -3.19566193  -2.44094162
H    0.65917588  -2.51932241  -3.03055449
H    0.68131170  -4.01358923  -2.78853820
O    1.57541497  -0.00477790   1.68234661
H    2.52628234  -0.01786099   1.57320484
H    1.44301247   0.18882752   2.61036513
O   -0.56789038   2.81695966   4.88562148
H   -0.08761756   3.62828317   5.05092129
H   -1.12509885   2.70669680   5.65607113
O   -0.67086625   1.11418198  -3.65947631
H   -1.22307958   1.29060575  -4.42116322
H   -0.48406297   1.97853992  -3.29311347
O   -1.71537749   2.32669853   2.40328806
H   -1.32289792   2.53179741   3.25189049
H   -2.54599916   2.80240558   2.40177887
O   -0.19153066   3.42551149  -2.14251487
H   -0.89778966   4.06705707  -2.21899575
H    0.60136532   3.91393528  -2.36385174
O    1.29570557  -0.88841742  -3.71669951
H    1.85905959  -0.93857652  -4.48893533
H    0.65278618  -0.21278773  -3.93213169
O    4.06881429  -0.07666594   0.37106026
H    4.61785289  -0.85656600   0.45195756
H    4.68312725   0.65562996   0.42199306
O    0.34626145  -2.21999763   0.13363600
H    0.48362259  -2.69533286  -0.68576634
H   -0.31596777  -2.73075942   0.59926107
O   -1.15078674  -0.32074387  -1.38407898
H   -1.14411601   0.15943167  -2.21209999
H   -1.70690381  -1.08145194  -1.55227200
O   -1.33763378  -0.33804511   1.55153193
H   -1.72670308   0.35324339   2.08723440
H   -1.87857770  -1.10862246   1.72422261
Ca   0.18625314  -0.16616410   0.18806470
