7
Energy:   -441.24398357
O    1.06578549   0.82553238  -1.20497162
H    1.93887211   0.46114521  -1.05946012
H    1.08814370   1.15002446  -2.10521429
O   -1.07068806  -0.77000122   1.16631196
H   -1.49681428  -0.50449067   1.98126745
H   -1.15796489  -1.72306229   1.14930620
Ca  -0.41133747   0.59844277   0.10588759
