7
Energy:   -438.20856886
O   -1.30170048   0.14123541  -0.77487171
H   -0.86522724   0.84787631  -1.25066747
H   -2.22289912   0.21782464  -1.02338530
O    1.30921478  -0.23185547   0.87626523
H    1.96497288  -0.12047397   0.18792860
H    1.61996571   0.31855039   1.59509698
Ca  -0.57351495  -1.26751692   0.37705674
