7
Energy:   -437.78304857
O    1.45957767   0.75030657   0.22060922
H    2.16754583   0.83531983   0.85919020
H    1.90267252   0.54835355  -0.60347438
O   -1.57489318  -0.70000863  -0.14110529
H   -0.95765660  -1.40783036  -0.32614382
H   -2.43783364  -1.10345822  -0.23488185
Ca  -0.55999397   1.18424517   0.20574027
