7
Energy:   -431.04028015
O   -1.03969977   0.31623462  -1.21086827
H   -1.70021066  -0.36694961  -1.32583137
H   -1.09201388   0.83782666  -2.01176578
O    1.14448981  -0.24001686   1.20620720
H    1.93127742  -0.67350261   0.87562105
H    0.83763169  -0.80676690   1.91392489
Ca  -0.15645124   1.00568495   0.62633717
