7
Energy:   -437.43227596
O    1.00780856   1.36947939   0.44116600
H    1.54129020   0.90548654   1.08641000
H    1.36884942   2.25581279   0.42400650
O   -1.11168580  -1.30572137  -0.51907784
H   -1.78890392  -1.71532563   0.01928246
H   -0.46210385  -1.99576718  -0.65365834
Ca  -0.56234926   0.50898124  -0.85230802
