7
Energy:   -432.02453951
O   -0.43334386  -1.34902247  -1.22013363
H   -1.09984768  -1.98880463  -0.96976730
H   -0.79657680  -0.91327547  -1.99111886
O    0.63485470   1.27730997   1.22750558
H    0.80559323   1.65425531   2.09063501
H   -0.11681253   1.76831106   0.89562284
Ca   1.01080672  -0.46204991  -0.04147609
