7
Energy:   -430.89440278
O    1.04384724   1.24704069  -1.23252025
H    0.67993807   1.89063559  -1.84045740
H    1.66361793   0.74271369  -1.75955955
O   -1.00980445  -1.17103815   1.22043988
H   -1.50399790  -1.96739656   1.02597144
H   -0.85103890  -1.21140194   2.16351788
Ca  -0.04641934   0.48272670   0.48414797
