7
Energy:   -437.91895756
O    1.24489117   0.72883180  -0.51688383
H    1.76565078  -0.06396987  -0.64536255
H    1.46173563   1.28257145  -1.26693897
O   -1.29766791  -0.60434005   0.57167793
H   -1.61531730  -1.20118894   1.24924868
H   -1.18585792  -1.15704160  -0.20178918
Ca  -0.38873000   1.06840463   0.87999265
