7
Energy:   -447.32247720
O   -1.07196747  -0.87383256   1.38767690
H   -0.99771975  -1.72260546   1.82391501
H   -2.00947387  -0.76837921   1.22583385
O    1.15038608   0.91330879  -1.31508753
H    1.90690272   0.71360760  -1.86648018
H    0.64489436   1.54862968  -1.82211546
Ca   0.37693262   0.18918422   0.59403277
