7
Energy:   -429.13764671
O    0.66021718   1.35630735   0.17969282
H    0.59521616   2.28130621  -0.05775996
H    0.74624875   1.35873498   1.13301570
O   -0.66395449  -1.40497596  -0.23574048
H   -0.91109725  -1.38417408   0.68876997
H   -1.30194951  -1.99192300  -0.64155741
Ca   0.98967261  -0.21285526  -1.16841201
