7
Energy:   -430.66007262
O    0.10879127   1.38396114  -1.34678351
H    0.29297154   2.31566953  -1.22749841
H   -0.13254378   1.30325374  -2.26953785
O   -0.01998821  -1.43185939   1.35400902
H    0.35212699  -1.92148371   2.08751440
H   -0.90670817  -1.21042641   1.63848573
Ca   0.28973943  -0.46582332  -0.27087512
