7
Energy:   -431.15089893
O    0.83255462  -0.53593557  -1.29307918
H    0.72888141  -1.17022377  -2.00241844
H    1.77802798  -0.40179310  -1.22736942
O   -0.85673299   0.49594951   1.34691187
H   -0.53634937   0.44974623   2.24771787
H   -1.76090205   0.18587975   1.39757645
Ca  -0.19433021   1.12599494  -0.56257922
