7
Energy:   -429.80612398
O    0.25862966   1.22639545   0.62306031
H   -0.44110679   1.69663901   1.07635021
H    0.34505818   1.67652714  -0.21726309
O   -0.05149390  -1.27420366  -0.62764679
H   -0.37772848  -2.08104547  -1.02615543
H   -0.78195360  -0.65957919  -0.69762710
Ca   1.05523959  -0.63013808   0.98338555
