7
Energy:   -440.93457576
O   -0.49475118   0.88458607   1.54078195
H   -0.61449913   1.61198297   2.15134401
H   -0.11688632   0.18435559   2.07287900
O    0.26239729  -0.86698690  -1.57857544
H    0.96763955  -1.42862353  -1.25697085
H    0.33485715  -0.91289527  -2.53192419
Ca  -0.23900080   0.58427736  -0.42514429
