7
Energy:   -438.84581799
O   -0.40089726   1.42661704   0.42557630
H    0.02858358   1.48609161   1.27894658
H   -0.73572006   2.30856641   0.26343176
O    0.34803786  -1.48677231  -0.52682102
H    0.90224381  -1.72492398  -1.27003795
H    0.87707037  -1.69460285   0.24334968
Ca  -1.11724387  -0.31824316  -0.40513627
