7
Energy:   -439.24084766
O    1.42682812   0.69216631  -1.07533315
H    2.31810540   0.84893979  -0.76343776
H    1.47196706   0.84727467  -2.01880319
O   -1.42891895  -0.66063236   1.06925260
H   -1.84717811  -0.26634765   1.83464838
H   -1.59519657  -1.59875267   1.16152330
Ca  -0.38856092   0.13551086  -0.23071211
