7
Energy:   -445.21265282
O   -0.71572909   0.41616161   1.49579187
H   -0.53681434   1.35334637   1.41894084
H   -1.36186698   0.35207301   2.19909148
O    0.67710145  -0.42177392  -1.47707416
H    0.16751390   0.04455947  -2.13970947
H    1.22825341  -1.02336222  -1.97762873
Ca   0.63465875  -0.80984460   0.53057983
