7
Energy:   -444.58567694
O   -0.55461781  -1.61282155  -1.08287945
H    0.00310334  -2.39048175  -1.10346051
H   -1.24041441  -1.79224376  -1.72609213
O    0.44005113   1.75218794   1.00920396
H    0.15297276   2.03026344   1.87896937
H    1.38647146   1.89541603   1.01167914
Ca  -0.14100831   0.04689941   0.05957140
