7
Energy:   -439.93218278
O    0.96085569   0.56729299   1.01669884
H    1.24633393  -0.14771176   1.58547140
H    1.62306917   0.60393914   0.32650885
O   -0.99525289  -0.42225995  -0.88215494
H   -0.70350481  -0.19312534  -1.76454501
H   -1.25383947  -1.34165146  -0.94606183
Ca  -0.96882545   0.96368263   0.66621912
