7
Energy:   -447.16601663
O    0.20834883   1.33498834   0.99942088
H    1.01681525   1.83839987   1.09528921
H   -0.48987478   1.96846099   1.16503502
O   -0.13180090  -1.43563370  -0.99028067
H   -0.84640539  -0.97193038  -1.42680272
H    0.18601480  -2.05748993  -1.64489495
Ca   0.01703560  -0.70143925   0.89929871
