7
Energy:   -439.10921299
O   -1.44259824   0.42457969   0.41851579
H   -1.11520277   1.23980418   0.79858564
H   -1.70765341  -0.10225364   1.17245495
O    1.29916713  -0.40131000  -0.59263667
H    1.88415588   0.32914460  -0.39149970
H    1.77234383  -1.17737447  -0.29253736
Ca  -0.69021955  -0.36693899  -1.14809290
