7
Energy:   -454.69276697
O    1.40433343   1.26799646  -0.10163417
H    1.39975440   1.63594730   0.78200776
H    2.13133741   1.70880798  -0.54138667
O   -1.43815030  -1.21909661   0.04702827
H   -1.31049162  -1.59559357   0.91776655
H   -2.13761134  -1.74453301  -0.34143368
Ca  -0.03463662  -0.09050137  -0.82630256
