7
Energy:   -427.98169592
O    1.32680871  -0.28302738  -1.65698342
H    2.25200828  -0.10595435  -1.82693266
H    1.06929891  -0.89586538  -2.34571423
O   -1.34312944   0.40732470   1.61288053
H   -2.25983341   0.13299701   1.63798047
H   -1.03505558   0.29753989   2.51247468
Ca  -0.00133709   0.42764240   0.10194693
