7
Energy:   -431.40869040
O    1.28040802  -0.12293420   1.42469203
H    0.82005592  -0.67649720   2.05546599
H    2.16151994  -0.02838571   1.78654037
O   -1.21836854   0.17702477  -1.48039971
H   -1.26008772   0.08676824  -2.43242131
H   -2.12124047   0.35398608  -1.21631860
Ca   0.34273009   0.20360758  -0.12085403
