7
Energy:   -437.93081645
O    1.55868690  -0.29656051   0.20649697
H    1.87019380   0.60385353   0.11457384
H    2.32608114  -0.83649030   0.01725175
O   -1.64670088   0.16781659  -0.17853371
H   -1.90952239   1.04702385   0.09377365
H   -1.77353448   0.16247065  -1.12727841
Ca  -0.42542190  -0.87738102   0.96833773
