7
Energy:   -431.58957103
O    0.02061883   1.03331638  -1.45011280
H    0.58483004   1.69505903  -1.05012002
H    0.17014148   1.12734104  -2.39087536
O   -0.09000736  -1.04466268   1.44023359
H    0.69960595  -1.54737905   1.24018632
H   -0.52790397  -1.54850435   2.12625253
Ca  -0.92428696   0.32828017   0.10132977
