90
Energy:   -416.02377104
C   -0.47373881  -3.83911788  -3.37547995
H   -0.63296630  -2.78368534  -3.30058715
H   -1.27102234  -4.28124246  -3.93562630
H    0.45621411  -4.02525656  -3.87089801
C   -0.43551493  -4.45392343  -1.96404342
N   -0.40705551  -4.91167410  -0.91316477
C    2.55890113   1.26404377  -0.17701161
H    1.74936174   1.73335334   0.34192450
H    3.48678971   1.56591595   0.26207274
H    2.45973247   0.20103369  -0.10577794
C    2.53129547   1.68405917  -1.65837078
N    2.51074180   1.99677973  -2.76131001
C   -1.31635094   0.81558960   0.15041549
H   -2.13288085   0.45204566   0.73864578
H   -1.68814002   1.47047403  -0.60971500
H   -0.63406431   1.34927673   0.77855727
C   -0.58804130  -0.37183553  -0.50623253
N   -0.04578166  -1.25592752  -0.99513682
C    0.57395626  -0.25739553  -4.35734159
H    0.14229346  -0.94532054  -5.05399544
H    1.03680461  -0.80049683  -3.56002642
H    1.30852455   0.34053447  -4.85512492
C   -0.52815877   0.65379150  -3.78578175
N   -1.34873350   1.33221166  -3.36022946
C    2.74596611  -3.09454520  -0.28379258
H    2.20004579  -2.29393743   0.16996768
H    3.74531731  -3.10638969   0.09838011
H    2.26725747  -4.02481244  -0.05942681
C    2.78234724  -2.89088493  -1.80983285
N    2.80943465  -2.73925060  -2.94603920
C    1.24775355   3.39902562   3.01698003
H    1.19779852   4.26601215   2.39188881
H    1.81414236   2.63641150   2.52451429
H    1.72093425   3.65330319   3.94236753
C   -0.17655407   2.88283685   3.29356088
N   -1.23701583   2.49851084   3.49948789
C   -4.64145154   1.16540556  -2.84289172
H   -4.13210443   2.08774737  -3.02930867
H   -5.64562310   1.23274287  -3.20621561
H   -4.13297222   0.36927506  -3.34540948
C   -4.66110439   0.88683973  -1.32842322
N   -4.67573682   0.67943480  -0.20083258
C   -0.25271716   4.41065121  -2.77751141
H    0.42957177   3.81869217  -3.35106742
H   -0.06816543   5.44810507  -2.96333190
H   -1.25677280   4.17096148  -3.05914983
C   -0.05522980   4.11444522  -1.27922547
N    0.09180852   3.89390639  -0.16368349
C    4.53660463  -0.91858051   2.55989764
H    3.78560678  -1.15477870   1.83525094
H    4.64889577  -1.73897063   3.23757739
H    5.46667606  -0.73634283   2.06325325
C    4.11725646   0.33983303   3.34229298
N    3.80503269   1.27677911   3.92482188
C   -3.28245867   3.82811131   1.12401916
H   -2.30444678   4.13698876   1.42895791
H   -3.39977545   2.78086847   1.30954088
H   -4.01765490   4.37310317   1.67842827
C   -3.46308358   4.10642511  -0.37981463
N   -3.59756703   4.31364240  -1.49948724
C   -4.24603946   0.62812601   3.40943648
H   -4.93085222   0.33813252   4.17874490
H   -4.78302606   0.79944706   2.49993465
H   -3.74193535   1.52592560   3.70052757
C   -3.21309297  -0.49323669   3.19225625
N   -2.44401735  -1.32814219   3.03055569
C    5.27777636  -0.25965512  -3.48060882
H    6.28781957  -0.25222163  -3.83367771
H    4.81351959   0.67715363  -3.70810412
H    4.73854571  -1.05042138  -3.95895818
C    5.26834091  -0.48054617  -1.95656220
N    5.26131579  -0.64500960  -0.82184021
C   -3.26647640  -2.73375220  -0.04277280
H   -3.78251156  -1.97329112   0.50522980
H   -2.24624936  -2.77391409   0.27726299
H   -3.73336586  -3.68007751   0.13437608
C   -3.32016409  -2.40844294  -1.54706384
N   -3.36013701  -2.16623541  -2.66707689
C    0.41944300  -0.44028367   4.89715779
H    0.43416707  -1.46172332   5.21550418
H   -0.55800441  -0.03292069   5.05062134
H    1.13263820   0.12043325   5.46447448
C    0.77857762  -0.36348538   3.40158955
N    1.04596967  -0.30630557   2.28807102
C   -0.06685375  -3.74904895   2.23071581
H   -0.18213463  -4.73027244   1.81984972
H   -0.15741361  -3.02268007   1.45027603
H   -0.82528480  -3.57891728   2.96606378
C    1.32097930  -3.62711101   2.88695553
N    2.35428409  -3.53632267   3.37555583
