90
Energy:   -415.77961917
C    1.31436638  -1.31724622  -4.56128506
H    2.38225045  -1.32207712  -4.49419956
H    0.94491075  -0.34786834  -4.29916267
H    1.01881027  -1.55290472  -5.56228993
C    0.73453037  -2.36630265  -3.59439788
N    0.30281611  -3.14737284  -2.87450643
C    5.42593533   0.39607125  -1.47019221
H    5.39857036   0.86547725  -0.50904220
H    6.22107015   0.81634994  -2.04986930
H    5.58922746  -0.65448845  -1.34953115
C    4.08589968   0.62761140  -2.19289107
N    3.08818224   0.80000357  -2.73097321
C    2.41275086   1.63704102   2.41552302
H    2.11773503   2.34236863   3.16410755
H    3.12775434   0.95659015   2.82862800
H    1.55465507   1.09275545   2.08037538
C    3.04330019   2.38460277   1.22591848
N    3.51277283   2.94119648   0.34020382
C   -1.81546737  -0.62024615  -1.94598269
H   -2.07398687  -1.20503950  -2.80393640
H   -1.61714184  -1.26913474  -1.11863169
H   -0.94318480  -0.03879934  -2.16032309
C   -2.98426998   0.31848655  -1.59344706
N   -3.85449666   1.01741572  -1.33096826
C    3.01480276  -4.62536928  -0.99823728
H    3.53538141  -5.55169321  -1.12402297
H    1.98200443  -4.76054827  -1.24309101
H    3.10109895  -4.30292938   0.01836715
C    3.62781527  -3.56166915  -1.92794566
N    4.08423096  -2.76969604  -2.62015580
C    1.25963814   5.82646444   0.39505109
H    2.11599806   5.31599734   0.00650096
H    1.55532981   6.78321995   0.77199196
H    0.53846556   5.95757117  -0.38444890
C    0.63949334   4.99544558   1.53365905
N    0.17776735   4.37671427   2.38140444
C   -3.06975333   3.46095100  -3.90576450
H   -2.58361303   4.40585372  -3.78035865
H   -3.59411991   3.20770682  -3.00809743
H   -3.76285780   3.52154600  -4.71868118
C   -2.01718188   2.37826628  -4.20823292
N   -1.23349459   1.57215830  -4.43343441
C    0.99733918   3.26064094  -2.28875004
H    1.99666472   3.55460254  -2.04413762
H    0.39963787   4.13246559  -2.45480427
H    1.00863985   2.66177205  -3.17538832
C    0.40303494   2.44470227  -1.12571669
N   -0.03945157   1.83719884  -0.25978550
C    2.80552979  -3.41573108   3.61099186
H    3.72312257  -3.11711851   3.14865626
H    2.34463635  -4.18375574   3.02565909
H    3.00604202  -3.78820081   4.59382461
C    1.85963473  -2.20404842   3.70430683
N    1.15537287  -1.30189561   3.77378406
C   -3.03157357   3.45253452   0.90464486
H   -2.69773607   3.81746005   1.85347680
H   -2.73885037   2.42943560   0.79292728
H   -4.09755186   3.52663758   0.84898410
C   -2.39913960   4.29316069  -0.22006618
N   -1.92826376   4.91904509  -1.05746467
C   -1.95309166  -3.11476544   4.09363540
H   -2.14981090  -2.16130920   4.53762068
H   -1.05786170  -3.05867390   3.51026919
H   -1.83200874  -3.84835696   4.86310372
C   -3.13269593  -3.51193688   3.18677895
N   -4.01096493  -3.80764907   2.51158311
C    1.41914012  -1.15383097  -0.15552475
H    1.48018190  -0.49525490  -0.99662619
H    0.72088316  -0.76204867   0.55429420
H    1.09268247  -2.11928893  -0.48143185
C    2.80611108  -1.27602434   0.50248766
N    3.83877400  -1.36700286   0.99240781
C   -5.32821099  -1.00626944   1.01546773
H   -4.42192988  -1.49594523   0.72603318
H   -5.82056458  -0.62407616   0.14574632
H   -5.96940308  -1.70582075   1.50983577
C   -5.00111930   0.15525802   1.97226707
N   -4.75758466   1.02006801   2.68464767
C   -1.25023327   1.12066733   3.07532764
H   -2.16034138   1.48909065   3.50061302
H   -0.78590790   1.89486238   2.50093834
H   -0.58957593   0.81263300   3.85861930
C   -1.55949259  -0.08051196   2.16256974
N   -1.78975022  -0.97484454   1.48297999
C   -1.93072706  -4.11848622  -0.20476312
H   -2.52820368  -4.97883572   0.01368737
H   -1.69650056  -4.10262905  -1.24869108
H   -2.47322679  -3.23283019   0.05254317
C   -0.62712205  -4.17773129   0.61298011
N    0.34347114  -4.22184194   1.22182712
