90
Energy:   -419.29351038
C   -2.06458067  -3.62158313  -3.86545117
H   -2.53707033  -4.40806261  -4.41599973
H   -1.31946731  -3.15631795  -4.47637955
H   -2.79710108  -2.89532488  -3.58108890
C   -1.40267203  -4.20454466  -2.60305947
N   -0.90985096  -4.63858602  -1.66315147
C    4.12180967   2.75802002  -0.02115466
H    3.15909682   2.58016123   0.41064436
H    4.69815505   3.37649118   0.63475580
H    4.62556087   1.82521078  -0.16607095
C    3.95286457   3.46641687  -1.37807451
N    3.82707726   3.99385052  -2.38836301
C   -0.26444237   0.72805659   0.77383040
H   -0.62863247   1.65706882   1.16009719
H    0.29455098   0.22102099   1.53234239
H   -1.09069531   0.11872600   0.47229864
C    0.64437477   0.99770673  -0.43981708
N    1.32103044   1.19847351  -1.34343280
C   -1.19888458   1.35305856  -3.79208173
H   -1.50587424   1.11529812  -4.78914115
H   -0.13590719   1.47242627  -3.76507215
H   -1.66800984   2.26335512  -3.48195153
C   -1.61175281   0.21330698  -2.84228904
N   -1.91915198  -0.63528988  -2.13512521
C    1.44646818  -2.16409709  -2.00070836
H    0.54871435  -2.08407084  -1.42405072
H    2.20957304  -1.55821971  -1.55857414
H    1.76793617  -3.18447355  -2.02043951
C    1.17758798  -1.68270541  -3.43861152
N    0.97739445  -1.32428742  -4.50919578
C    1.93508710   3.25599181   3.55296016
H    1.81346649   4.30571837   3.72083732
H    2.25776269   3.09082142   2.54623364
H    2.66744808   2.86896719   4.23027725
C    0.59166346   2.53991700   3.78544631
N   -0.40857650   2.00676675   3.95854281
C   -5.05706976   0.63432824  -1.58801715
H   -6.12526676   0.66472439  -1.53387442
H   -4.75348442  -0.20753075  -2.17453950
H   -4.69722488   1.53384385  -2.04220040
C   -4.47450714   0.50759787  -0.16810158
N   -4.04076280   0.41324135   0.88909010
C    0.52209171   4.59569663  -2.08291686
H   -0.50039955   4.75995331  -2.35204796
H    0.87494040   3.70085429  -2.55158956
H    1.11414157   5.42571054  -2.40765207
C    0.63376741   4.45259399  -0.55365228
N    0.71691504   4.34604757   0.58495472
C    3.92720039  -1.84934942   1.01338264
H    3.11661928  -2.37989987   0.55909786
H    4.38638645  -2.46762407   1.75620410
H    4.64920399  -1.59343511   0.26630985
C    3.39380018  -0.56422310   1.67333305
N    2.99665947   0.39261187   2.16469612
C   -2.68696112   3.62980829   1.59547040
H   -2.85878288   2.69143044   2.08005732
H   -3.48620796   4.30245825   1.82708558
H   -1.76169575   4.04393503   1.93793518
C   -2.62103858   3.41622448   0.07177877
N   -2.57195625   3.25720162  -1.06267890
C   -2.65938047  -0.49237929   3.78209153
H   -2.38383585  -0.00215763   4.69239811
H   -3.71908089  -0.42776958   3.64882603
H   -2.16682342  -0.01875655   2.95870332
C   -2.23969550  -1.97258702   3.84879687
N   -1.92722097  -3.07466895   3.89846203
C    3.47737699   1.07341541  -4.14470664
H    4.12591660   1.86398453  -4.45982092
H    2.53761295   1.48352681  -3.83884508
H    3.32268366   0.39394197  -4.95667026
C    4.11916633   0.32326549  -2.96276691
N    4.59700766  -0.23525523  -2.08275905
C   -3.06167289  -2.87953560   0.42560739
H   -2.26556821  -2.20189273   0.19775291
H   -2.66212668  -3.85993890   0.58075662
H   -3.56378901  -2.55450246   1.31281196
C   -4.05984631  -2.91159169  -0.74666487
N   -4.80303179  -2.93545891  -1.61947484
C    1.15567116  -1.24163035   4.60316485
H    1.77092180  -0.46401965   5.00526985
H    0.43224825  -1.53784145   5.33379292
H    0.65351659  -0.88306490   3.72899628
C    2.03408711  -2.45055428   4.23102462
N    2.68810772  -3.35065309   3.95394930
C    0.17233736  -5.04623042   1.77734136
H    0.02026052  -5.58582259   0.86596158
H   -0.66494798  -5.19847428   2.42593534
H    1.06258087  -5.39776187   2.25566262
C    0.31499443  -3.54455855   1.46713087
N    0.42120909  -2.42649558   1.23616506
