90
Energy:   -417.72800682
C   -1.76581376  -4.48285897  -2.52469062
H   -2.82577558  -4.55652422  -2.65100197
H   -1.27981179  -5.17946561  -3.17541357
H   -1.44641474  -3.48978174  -2.76276826
C   -1.39943581  -4.80353269  -1.06368563
N   -1.12665078  -5.04228884   0.02409899
C    2.96739533   2.77275150  -2.63423234
H    3.36725203   3.56974887  -3.22567971
H    3.68081052   1.97723357  -2.57865295
H    2.75571965   3.13151000  -1.64864376
C    1.66976844   2.25427725  -3.28149497
N    0.70362624   1.86824960  -3.76341142
C    1.04523813   0.54593684  -0.17194524
H    0.34204182   1.35183593  -0.20263401
H    1.90021414   0.79582924  -0.76479336
H    1.34983829   0.37669289   0.83972383
C    0.38839109  -0.73003115  -0.73056644
N   -0.10066139  -1.68004732  -1.14648532
C   -2.24429874  -0.04719569  -3.50311934
H   -3.23567973  -0.20521454  -3.87338133
H   -1.77250308  -0.99225352  -3.33231639
H   -1.67944671   0.50867968  -4.22203787
C   -2.30944904   0.74036654  -2.18133979
N   -2.35795641   1.32674242  -1.19721484
C    2.37090455  -3.90886556  -0.60884102
H    2.69301767  -2.88850127  -0.60863957
H    3.17498124  -4.53678128  -0.28622421
H    1.54127262  -4.02111277   0.05750013
C    1.94408211  -4.31214676  -2.03249367
N    1.62629341  -4.61240795  -3.09246778
C    2.26832558   3.69396628   1.89872282
H    1.99726069   4.68946946   1.61517843
H    2.06306152   3.02431866   1.08981131
H    3.31193315   3.66139968   2.13264960
C    1.45186695   3.27184864   3.13436517
N    0.84397639   2.95756287   4.05435706
C   -5.55534720   1.26733022  -0.00265285
H   -5.51524305   0.37193105  -0.58707749
H   -5.04545083   2.05352355  -0.51918438
H   -6.57656406   1.54635615   0.15278125
C   -4.87714673   1.02291578   1.35819457
N   -4.37219564   0.84093812   2.37140733
C   -1.68166093   4.37853816  -2.58804987
H   -1.81330256   5.40837557  -2.84690422
H   -2.59355327   3.99353521  -2.18169512
H   -1.41793565   3.82177487  -3.46289998
C   -0.55931734   4.25178128  -1.54120816
N    0.27631847   4.15740503  -0.76178692
C    5.45355227  -0.83387957  -0.33170328
H    4.74492257  -1.62698415  -0.21453144
H    6.31349115  -1.03161919   0.27352665
H    5.74765083  -0.76713413  -1.35832404
C    4.81249698   0.49613419   0.10614542
N    4.33520217   1.48638990   0.43214368
C   -1.93776940   3.24891233   1.77643249
H   -2.34669027   3.01153646   2.73629529
H   -1.10619161   3.91137449   1.89693712
H   -1.61129049   2.35044693   1.29573451
C   -3.01596690   3.93022560   0.91335522
N   -3.81873396   4.43749430   0.27075497
C   -1.80332572   0.63824841   4.91538850
H   -1.42828894   1.57466362   5.27228366
H   -1.61616135  -0.12215756   5.64453276
H   -2.85670010   0.71750576   4.74503656
C   -1.09640219   0.27085471   3.59748069
N   -0.57006549  -0.00268661   2.61623843
C    1.26931898  -1.57580123  -4.47318990
H    0.89280701  -0.71860040  -4.99121080
H    0.47857661  -2.03011944  -3.91352879
H    1.65514111  -2.27932731  -5.18106802
C    2.39399921  -1.14309862  -3.51430366
N    3.23137477  -0.82093186  -2.80036927
C   -2.83523546  -1.83745099   0.84173521
H   -2.43528998  -0.84772873   0.91517671
H   -2.03807998  -2.54917127   0.89555395
H   -3.51920429  -2.00641520   1.64705305
C   -3.57376348  -1.99438412  -0.50048250
N   -4.12363115  -2.11122797  -1.49982459
C    2.78649541  -0.03239196   4.03105136
H    3.36355062   0.84814792   3.83985250
H    3.15079085  -0.51256949   4.91514268
H    1.76005103   0.23671642   4.16849843
C    2.90896700  -0.99593105   2.83598102
N    3.00015267  -1.71332970   1.94619683
C    0.16506900  -3.51296052   2.73755004
H   -0.75665240  -4.05324334   2.67903230
H    0.98290510  -4.18482575   2.58057771
H    0.18019111  -2.75104712   1.98644526
C    0.29282186  -2.86495806   4.12872652
N    0.38793967  -2.38249077   5.16452065
