90
Energy:   -421.35136958
C   -0.74831084  -4.16256334  -3.63867261
H   -1.33308174  -3.54065535  -4.28378781
H   -0.26954343  -4.92536404  -4.21644068
H   -0.00620158  -3.56868028  -3.14727067
C   -1.66382923  -4.81453197  -2.58588442
N   -2.34547429  -5.29995225  -1.80203576
C    4.01392634   2.83125033   0.04057359
H    4.15701116   3.78297791   0.50816478
H    4.86621085   2.21130143   0.22543454
H    3.13922053   2.36421848   0.44265578
C    3.84026076   3.02591412  -1.47717022
N    3.71095884   3.17085016  -2.60719947
C    0.05987584   0.30356953   1.38587979
H    0.71073181   1.14567006   1.49612217
H    0.62732265  -0.54687557   1.07021170
H   -0.41000946   0.09082161   2.32334724
C   -1.01728777   0.62177799   0.33228502
N   -1.81928505   0.85869866  -0.45216417
C    0.27599759  -0.46613294  -3.11893439
H    0.76273225  -1.11142131  -3.82007095
H   -0.10470881   0.39339747  -3.62998155
H   -0.53168942  -0.99062247  -2.65261743
C    1.28586348  -0.01960767  -2.04544193
N    2.03775454   0.31285068  -1.24617800
C    3.11337249  -3.02953803  -0.28529583
H    2.46789370  -2.30697388   0.16875082
H    4.13270268  -2.77237350  -0.08596828
H    2.90438146  -3.99813328   0.11849259
C    2.87609639  -3.04556187  -1.80682246
N    2.69943354  -3.05749235  -2.93966820
C    0.60749683   3.80760707   3.74726584
H    1.08867803   3.77530795   4.70242112
H    0.28559588   4.80752527   3.54369164
H    1.29554439   3.49336698   2.99046810
C   -0.61202396   2.86722807   3.75477396
N   -1.52001262   2.16707316   3.76036410
C   -4.22440094   1.66894443  -2.90978721
H   -3.16798456   1.52683175  -2.81657460
H   -4.42338912   2.67501936  -3.21493643
H   -4.61231326   0.99106298  -3.64115570
C   -4.90015405   1.40112674  -1.55213062
N   -5.40328296   1.20172429  -0.54129358
C    0.09637490   3.39503862  -2.28741973
H   -0.17766026   4.33901093  -2.71017404
H   -0.70485394   2.69848940  -2.42065118
H    0.97413395   3.02672482  -2.77607409
C    0.38063488   3.56903121  -0.78391621
N    0.59227935   3.69857660   0.33551050
C    4.05435947  -0.33729008   2.01466350
H    3.62705529  -0.26340981   1.03647486
H    4.06743601  -1.36221246   2.32168500
H    5.05456203   0.04240235   1.99656390
C    3.21099214   0.48502785   3.00669414
N    2.58306682   1.09728092   3.74530603
C   -3.15736113   3.79841797   0.99509160
H   -3.12256627   4.66436420   1.62264766
H   -2.34163367   3.14960343   1.23701618
H   -4.08172951   3.28233677   1.15034099
C   -3.05107780   4.22868253  -0.47975628
N   -2.97194503   4.54903406  -1.57784756
C   -4.13221464   0.35109792   2.51829627
H   -4.10225172   0.96956338   3.39093759
H   -5.13208193   0.00392023   2.36135001
H   -3.81390720   0.91784253   1.66836685
C   -3.19440046  -0.85504440   2.71149373
N   -2.49615517  -1.75307219   2.85533802
C    4.73687176  -0.11479032  -3.51424259
H    5.52911686   0.28616715  -4.11130287
H    3.89527024   0.54507497  -3.54864887
H    4.45384067  -1.07396202  -3.89474506
C    5.21526212  -0.26109210  -2.05776106
N    5.57144550  -0.37002043  -0.97334436
C   -3.75358706  -2.10117557  -0.71720270
H   -2.98531684  -1.73682849  -0.06765498
H   -3.85377754  -3.15918265  -0.59277611
H   -4.68053962  -1.62430234  -0.47585240
C   -3.38100307  -1.78916413  -2.17851377
N   -3.10359736  -1.55685742  -3.26652628
C    0.23528149  -1.36182048   4.91092796
H   -0.74057155  -1.78997639   5.00733091
H    0.14682057  -0.32420774   4.66509557
H    0.76321032  -1.46548247   5.83583036
C    1.00727651  -2.08978822   3.79482462
N    1.58206188  -2.63179329   2.96383495
C   -0.89564093  -4.52601778   1.38273874
H   -0.03185240  -4.75909103   1.96963431
H   -1.22466272  -5.40441386   0.86789499
H   -1.67739776  -4.17393113   2.02288743
C   -0.54015920  -3.43307244   0.35770058
N   -0.27548690  -2.61932496  -0.40548692
