90
Energy:   -417.05121432
C   -0.67035714  -4.04622853  -3.36618075
H    0.20578659  -4.11354661  -3.97670563
H   -1.54149993  -4.11703500  -3.98342930
H   -0.67150051  -4.84533800  -2.65461779
C   -0.67590916  -2.69730977  -2.62322223
N   -0.68004290  -1.69297844  -2.07005584
C    2.61892107   3.73450541  -0.14554313
H    2.18459528   4.64119708   0.22075115
H    3.62334710   3.64973013   0.21340061
H    2.04532731   2.89958730   0.19913215
C    2.62394916   3.75321820  -1.68542122
N    2.62769280   3.76715072  -2.83193046
C   -0.31638206  -0.21306700   0.89012328
H    0.68120737  -0.59366886   0.82042590
H   -1.00582112  -0.95373810   0.54230262
H   -0.53582120   0.02784214   1.90929370
C   -0.44406016   1.05400104   0.02419206
N   -0.53912231   1.99739079  -0.62053310
C    1.44372172   0.49777487  -3.35060561
H    1.46350314  -0.45102244  -3.84486520
H    1.89225259   1.23743085  -3.98038985
H    0.43004597   0.77169249  -3.14486374
C    2.22863880   0.40454528  -2.02893493
N    2.81304526   0.33513162  -1.04489102
C    2.37294182  -3.05302789  -0.20661802
H    1.37187103  -2.75345181   0.02362455
H    3.06263385  -2.38329172   0.26314517
H    2.53953562  -4.04682882   0.15325044
C    2.58132427  -3.01778242  -1.73204731
N    2.73647448  -2.99154057  -2.86779875
C   -0.06143518   3.95378612   2.54989916
H    0.87563409   3.96128657   3.06637288
H   -0.54693897   4.89863588   2.67813366
H    0.10696687   3.77781686   1.50799002
C   -0.95372659   2.83637592   3.12157259
N   -1.61807810   2.00441324   3.54720945
C   -3.09807416   0.46189000  -2.89613543
H   -2.08741076   0.81006823  -2.94337515
H   -3.74369205   1.17660899  -3.36223995
H   -3.17657402  -0.47551780  -3.40604079
C   -3.51048644   0.28127875  -1.42341832
N   -3.81754613   0.14680546  -0.32691349
C   -0.70490010   4.67804012  -2.91256690
H    0.11602573   5.02968882  -3.50190902
H   -1.62413040   5.01435080  -3.34478198
H   -0.69315240   3.60841371  -2.88686808
C   -0.58032286   5.22735630  -1.47927271
N   -0.48756943   5.63634717  -0.41212003
C    4.29349733  -0.09524249   2.00816218
H    3.98477365  -1.11826832   2.06300765
H    5.08697478   0.07572691   2.70534372
H    4.63597954   0.12135853   1.01786473
C    3.10289381   0.81933990   2.35109410
N    2.21643537   1.50028806   2.60642250
C   -3.41004536   3.59620921   0.57554484
H   -2.98996730   2.64113441   0.81275090
H   -4.33101233   3.72233095   1.10546205
H   -2.72575664   4.36767162   0.86101600
C   -3.67400449   3.67895293  -0.93940699
N   -3.87053405   3.74055939  -2.06735749
C   -4.25300972   0.00972010   2.93993552
H   -4.44329096   0.32289929   3.94522753
H   -5.16647950  -0.31848772   2.48965596
H   -3.85404437   0.82982751   2.38033783
C   -3.23864339  -1.14899359   2.94653485
N   -2.48340155  -2.01170859   2.95144836
C    5.60946786  -0.84520784  -2.80977259
H    6.57207395  -0.83265641  -3.27681878
H    5.25515016   0.15798904  -2.69595661
H    4.92494536  -1.39834510  -3.41835062
C    5.71918816  -1.51102313  -1.42548525
N    5.80087991  -2.00675287  -0.39482039
C   -3.64937784  -3.21998100  -0.12625792
H   -2.72662080  -2.72874259   0.10200608
H   -3.60071367  -4.23868403   0.19743179
H   -4.45199166  -2.72349111   0.37793245
C   -3.89233472  -3.17540045  -1.64631862
N   -4.07322715  -3.14220821  -2.77807291
C    0.29343450  -0.60226701   4.81844132
H    0.50561182  -0.88013190   5.82971383
H   -0.75890169  -0.67913037   4.64073463
H    0.61063716   0.40590938   4.65152239
C    1.04610184  -1.54274554   3.85896647
N    1.60649689  -2.24297456   3.14459383
C   -0.36905383  -4.92756206   2.77575926
H    0.67048429  -4.95410619   3.02786262
H   -0.84333987  -5.82142927   3.12354262
H   -0.82659779  -4.07796556   3.23807777
C   -0.52407326  -4.82564146   1.24697505
N   -0.63949228  -4.74975693   0.10872571
