90
Energy:   -416.02933093
C    0.19352778  -4.86727824  -0.91928317
H    1.14381499  -5.23084999  -0.58811860
H   -0.56608963  -5.57993546  -0.67433384
H   -0.02074455  -3.93716048  -0.43568478
C    0.22749781  -4.65698696  -2.44447943
N    0.25279005  -4.50041555  -3.58005737
C   -0.71850992  -0.07199188   0.90230893
H   -0.48394737  -0.59726110   1.80451336
H   -0.87598071  -0.77484339   0.11104298
H   -1.60668569   0.50683756   1.04722056
C    0.44884681   0.86250386   0.53407535
N    1.31799696   1.55827842   0.25990871
C   -0.04150253  -0.59516305   4.72136182
H    0.00020624  -0.52488540   5.78823651
H   -0.31802395  -1.58977753   4.43997769
H   -0.76693563   0.09628223   4.34646272
C    1.34053598  -0.25997270   4.13041598
N    2.36952648  -0.01040826   3.69042995
C   -3.47306368   2.89749898  -2.75006734
H   -3.81766839   3.41186440  -1.87738413
H   -4.31216539   2.51984840  -3.29613277
H   -2.92061917   3.57412224  -3.36803587
C   -2.56451682   1.72689802  -2.33073930
N   -1.88806239   0.85533240  -2.01853052
C    3.62042608  -3.03707855  -3.53483333
H    3.89418220  -2.03354701  -3.28407008
H    2.62343005  -3.04836974  -3.92312512
H    4.29513614  -3.41688341  -4.27335461
C    3.69027290  -3.91852943  -2.27397418
N    3.74227704  -4.57480967  -1.33520724
C    4.55370072   0.93364721   0.84205450
H    4.67213481   1.99541090   0.90148024
H    5.40208795   0.45481073   1.28460825
H    3.66694599   0.64379934   1.36603290
C    4.43846446   0.51183131  -0.63456053
N    4.35266582   0.19777020  -1.73396754
C   -4.79902268  -0.43673069   0.03604147
H   -5.39178727   0.24459652   0.60990866
H   -3.76192273  -0.21793808   0.18250851
H   -5.00033641  -1.43876360   0.35274627
C   -5.14879276  -0.29005179  -1.45652216
N   -5.40921248  -0.18084267  -2.56780363
C    3.22535939   3.53765552  -2.09863235
H    2.66127008   2.63112587  -2.02857943
H    4.22677133   3.31216868  -2.40067359
H    2.77230029   4.18478528  -2.82033840
C    3.24800820   4.23553119  -0.72602295
N    3.26487127   4.75513135   0.29594715
C    1.17030669   0.45753547  -3.29808840
H    0.57395274   0.23522896  -4.15822906
H    2.17830308   0.64782164  -3.60244600
H    0.77725111   1.32218817  -2.80535915
C    1.14355547  -0.74083484  -2.33124147
N    1.12363796  -1.63307600  -1.61137999
C   -0.53839736   4.41388882   0.16727891
H   -1.29096237   5.16231251   0.30295524
H    0.36820262   4.72996782   0.63958139
H   -0.86680305   3.49439972   0.60498726
C   -0.28743343   4.20517726  -1.33773158
N   -0.10057938   4.04978201  -2.45828031
C   -3.59670437   2.07167370   3.40358803
H   -3.51969575   2.95644125   4.00037630
H   -2.77760191   1.41976147   3.62490388
H   -4.51813368   1.57339534   3.62172969
C   -3.56026496   2.45368515   1.91216609
N   -3.53313416   2.73811004   0.80173466
C    2.25704429   3.39499620   3.17674193
H    2.67291194   2.88546463   2.33274438
H    2.77477951   3.09643018   4.06427090
H    2.36021001   4.45144736   3.04195742
C    0.76486990   3.03755206   3.30807840
N   -0.34612176   2.77141865   3.40586438
C   -2.30590191  -2.10572196  -3.50031765
H   -1.41238363  -1.52176213  -3.57458871
H   -3.14166051  -1.52173930  -3.82492650
H   -2.21646410  -2.97468675  -4.11821744
C   -2.51775663  -2.53602709  -2.03691235
N   -2.67549210  -2.85640881  -0.94734058
C    3.07904613  -2.50652223   1.24089175
H    2.96565343  -2.04669867   0.28141034
H    3.64689496  -3.40773988   1.13963197
H    3.58936585  -1.83555475   1.89988759
C    1.69048762  -2.83693687   1.81910576
N    0.65664270  -3.08294559   2.24961238
C   -2.63458930  -3.79746861   2.22590496
H   -1.85508730  -3.80361303   1.49293903
H   -3.52765875  -4.20504713   1.80022222
H   -2.33813087  -4.38897643   3.06681518
C   -2.89781605  -2.35068519   2.68321164
N   -3.09380033  -1.27348916   3.02369724
