90
Energy:   -421.00167143
C   -1.49723533  -4.37919104  -3.12688460
H   -0.66826882  -3.76042490  -2.85330979
H   -2.21931011  -3.79412942  -3.65717698
H   -1.15555973  -5.17701655  -3.75268914
C   -2.14283812  -4.96353179  -1.85671023
N   -2.62351873  -5.39860004  -0.91100768
C    3.87927019   2.82944162  -1.03179663
H    4.10451611   3.80611004  -0.65725257
H    4.76217150   2.22548793  -1.00681040
H    3.12235909   2.37999219  -0.42353691
C    3.37375183   2.93988242  -2.48226345
N    2.99737043   3.02211062  -3.56220194
C    0.38339059   0.39066135   1.29405048
H    1.03127185   1.23621280   1.19309110
H    0.87136886  -0.48049543   0.90952198
H    0.14980184   0.24170096   2.32756207
C   -0.91520717   0.64190593   0.50530463
N   -1.88207222   0.82896894  -0.08195252
C   -0.43892465  -0.65826956  -3.08190700
H   -1.10356246  -1.16266899  -2.41202792
H   -0.11368256  -1.33850597  -3.84111388
H   -0.94797898   0.16611574  -3.53594628
C    0.78221133  -0.13977714  -2.29986319
N    1.69140257   0.24626404  -1.71759603
C    3.00051391  -3.03472990  -0.80195536
H    2.46380921  -2.28465284  -0.25952321
H    4.03544101  -2.76749474  -0.85105065
H    2.89853131  -3.97642234  -0.30424661
C    2.43022378  -3.14356607  -2.22832272
N    2.00561686  -3.22459955  -3.29031806
C    1.37238087   3.99721440   3.30186819
H    2.06133234   4.01153555   4.12042848
H    0.99954386   4.98569190   3.13215112
H    1.87117374   3.64818817   2.42193328
C    0.19952137   3.05626917   3.63446807
N   -0.67372584   2.35569268   3.88210380
C   -4.78327312   1.49351398  -1.98724418
H   -3.73059273   1.35671251  -2.12159280
H   -5.05694797   2.48070657  -2.29619720
H   -5.31433010   0.77532886  -2.57638567
C   -5.14013431   1.30323585  -0.50129522
N   -5.40583369   1.16156513   0.60506133
C   -0.45937950   3.26000053  -2.44411132
H   -0.83655594   4.17640994  -2.84763568
H   -1.25843850   2.55400742  -2.35479420
H    0.29306915   2.86655284  -3.09520196
C    0.15055774   3.52342939  -1.05480149
N    0.60468374   3.71956414  -0.02039717
C    4.39444540  -0.21285694   1.06593880
H    3.74870523  -0.18569767   0.21318902
H    4.48269871  -1.22061828   1.41454677
H    5.36107254   0.15615929   0.79325198
C    3.80558821   0.66737106   2.18399330
N    3.36715727   1.32274082   3.01643570
C   -2.90690323   3.83563671   1.46602800
H   -2.04499594   3.20808022   1.55652034
H   -3.76412988   3.32145760   1.84771034
H   -2.75303730   4.73555251   2.02403868
C   -3.13509217   4.18367705  -0.01667147
N   -3.30498921   4.44280891  -1.12060863
C   -3.46714670   0.47244040   3.34247454
H   -3.27010077   1.15410235   4.14335535
H   -4.46496162   0.09647829   3.43145194
H   -3.35955347   0.98057200   2.40699335
C   -2.46949001  -0.69887061   3.40813764
N   -1.72668925  -1.57096490   3.45702681
C    3.83274780  -0.32117771  -4.47997174
H    4.47331361   0.03083217  -5.26142211
H    3.00366883   0.34631812  -4.37053469
H    3.47364619  -1.29857081  -4.72623960
C    4.62090513  -0.38178851  -3.15833096
N    5.20772408  -0.42691600  -2.17430932
C   -3.79237306  -2.13893397   0.27264059
H   -2.90481797  -1.73079171   0.70917930
H   -3.84217056  -3.18746919   0.47998859
H   -4.65021719  -1.65219214   0.68747179
C   -3.76346339  -1.91779083  -1.25112446
N   -3.74193883  -1.75313971  -2.38563680
C    1.37965535  -1.02460005   4.83532921
H    1.03559292  -1.70044849   5.59014715
H    0.58046952  -0.37355468   4.54837796
H    2.19205592  -0.44404637   5.21985726
C    1.85582953  -1.82446692   3.60851581
N    2.21036285  -2.42000416   2.69509746
C   -0.50633617  -4.42832484   1.81176620
H    0.46823931  -4.61113074   2.21386672
H   -0.91404845  -5.34304159   1.43498637
H   -1.14320846  -4.04407400   2.58095023
C   -0.40557522  -3.40174478   0.66827129
N   -0.33055411  -2.63740926  -0.18311265
