90
Energy:   -416.27348701
C   -0.19809794  -4.69805456  -3.60266239
H   -0.31036984  -3.65543126  -3.81534018
H   -0.69251696  -5.27154206  -4.35867893
H    0.84194265  -4.94903123  -3.58765057
C   -0.82179865  -5.01204119  -2.23007001
N   -1.28617218  -5.24581851  -1.20811260
C    3.84269640   3.41980937  -0.36450894
H    4.84723436   3.76007663  -0.50600758
H    3.84105054   2.57748979   0.29533506
H    3.25599319   4.20712818   0.06070574
C    3.24369447   3.00923815  -1.72253249
N    2.79771030   2.70354921  -2.73364275
C   -0.70637786   1.28190781  -0.37863486
H   -1.29859135   0.42983601  -0.63970384
H   -0.75583902   2.00527220  -1.16552535
H   -1.08105897   1.71298247   0.52617881
C    0.75641728   0.84672420  -0.17261156
N    1.84553476   0.52271023  -0.01921785
C    0.98191131  -0.06487167  -3.84473220
H    0.67482608  -0.87829691  -4.46838132
H    1.08154269  -0.40688081  -2.83577113
H    1.92253261   0.31236455  -4.18798648
C   -0.07330362   1.05515394  -3.90526389
N   -0.85895910   1.88906391  -3.95033249
C    0.91808308  -2.85691092   0.16330108
H    1.10891818  -3.77189214   0.68415760
H   -0.12661306  -2.78235890  -0.05567622
H    1.21427760  -2.03011013   0.77450346
C    1.72070744  -2.83729616  -1.15085622
N    2.31829776  -2.82269208  -2.12930606
C    1.71029080   3.10975807   2.77764314
H    1.63075140   4.10629722   2.39622029
H    2.20970032   2.49221757   2.06061249
H    2.26933133   3.12059176   3.68992348
C    0.30138876   2.54868994   3.04559383
N   -0.74760286   2.13094921   3.24509529
C   -3.98218731   1.42711027  -2.87538745
H   -3.38677186   0.67137141  -3.34361753
H   -3.51325226   2.38041701  -3.00268733
H   -4.95350499   1.44469196  -3.32386482
C   -4.11608529   1.11745515  -1.37279468
N   -4.21577841   0.88690284  -0.25404606
C   -0.09305442   4.92781507  -2.69977627
H    0.61455233   4.39166954  -3.29705414
H   -0.02172514   5.97351805  -2.91498895
H   -1.08142452   4.58426241  -2.92337236
C    0.20837463   4.68889182  -1.20858339
N    0.43280225   4.51100261  -0.09832251
C    4.08723782  -1.50002722   1.87352484
H    3.67142050  -1.31440973   0.90525717
H    3.83120662  -2.49027302   2.18778650
H    5.15199194  -1.40412506   1.82879760
C    3.52174645  -0.47998957   2.87918021
N    3.10071243   0.27947482   3.62793634
C   -2.96989691   3.92367027   1.43771739
H   -2.00138081   4.23562161   1.76872057
H   -3.08303106   2.87305013   1.60593475
H   -3.72152619   4.45517767   1.98310935
C   -3.11922345   4.22182833  -0.06574639
N   -3.23040385   4.44382056  -1.18514352
C   -3.49488586  -0.02987029   3.10318776
H   -3.04745800   0.75293612   3.67931502
H   -3.93423822  -0.75039925   3.76099215
H   -4.25167727   0.38207393   2.46878426
C   -2.41729270  -0.71239621   2.24031387
N   -1.61497561  -1.22056778   1.59786504
C    4.53709186  -0.31512011  -2.35681099
H    4.79204609   0.27711801  -3.21071528
H    3.48498755  -0.24463792  -2.17513029
H    4.79986896  -1.33612506  -2.53955721
C    5.30619084   0.20054285  -1.12629140
N    5.87881999   0.58447736  -0.21011364
C   -3.58220828  -2.65314753  -0.70825261
H   -3.11671183  -3.33328168  -0.02588118
H   -4.32113539  -3.17295989  -1.28155963
H   -4.04817393  -1.86106890  -0.16017729
C   -2.51802845  -2.06612163  -1.65404428
N   -1.72569819  -1.62905417  -2.35822916
C    0.18047144  -1.18178615   4.65268496
H    0.78832364  -0.85229537   5.46929485
H   -0.78311767  -1.46910353   5.01853169
H    0.07087697  -0.38601160   3.94583915
C    0.85020198  -2.38780696   3.96815972
N    1.34884681  -3.28574427   3.45849956
C   -1.54176594  -4.87772451   2.33777229
H   -2.15218614  -5.72336628   2.09865443
H   -0.59732132  -5.21392894   2.71179106
H   -1.38771907  -4.28880323   1.45780617
C   -2.24422499  -4.02435434   3.41011116
N   -2.76723768  -3.38898146   4.20851618
