90
Energy:   -418.48352476
C   -1.48233952  -3.91388365  -3.44015500
H   -0.69769108  -4.00846361  -4.16146051
H   -2.42715831  -3.89107067  -3.94184825
H   -1.45397741  -4.74819781  -2.77081611
C   -1.29263386  -2.60980178  -2.64329727
N   -1.15138937  -1.63885356  -2.05000046
C    2.99606479   3.26906285  -0.24904744
H    2.70904119   4.21861207   0.15204346
H    3.99422833   3.03842195   0.05977841
H    2.32827749   2.51383060   0.10953794
C    2.93366927   3.32134224  -1.78689453
N    2.88721297   3.36026662  -2.93189159
C   -0.30679225  -0.40852868   0.93790568
H   -1.10417634  -1.05172214   0.62906761
H   -0.38825458  -0.21826687   1.98769777
H    0.63157512  -0.87993750   0.73262659
C   -0.39245805   0.92183302   0.16693283
N   -0.45624014   1.91234777  -0.40709150
C    0.90630511   0.49494414  -3.53535587
H    0.77086038  -0.38183919  -4.13352465
H    1.38251369   1.25484577  -4.11902872
H   -0.04617361   0.84792169  -3.19906695
C    1.78671880   0.15514203  -2.31838986
N    2.44222681  -0.09785609  -1.41230336
C    1.94276640  -3.38310837  -0.70254650
H    1.01229935  -2.97574941  -0.36610941
H    2.75099178  -2.83406205  -0.26640551
H    2.00959666  -4.40984715  -0.40887953
C    2.02251757  -3.28188055  -2.23714504
N    2.08189595  -3.20651183  -3.37972341
C    0.67557206   3.60870219   2.71901761
H    1.67190328   3.46489379   3.08170677
H    0.33815997   4.58932897   2.98250062
H    0.66464174   3.50181196   1.65442656
C   -0.25704909   2.55814943   3.35001419
N   -0.95142793   1.77596514   3.81981983
C   -3.43113475   0.77800308  -2.42573586
H   -2.41411349   1.07226796  -2.58057810
H   -4.08345447   1.54423662  -2.78941734
H   -3.62289645  -0.13336164  -2.95255737
C   -3.68003927   0.56336161  -0.92121747
N   -3.86536000   0.40355129   0.19896486
C   -0.37117153   4.64465991  -2.61042577
H    0.43868467   4.92541074  -3.25090378
H   -1.27811516   5.08562167  -2.96806396
H   -0.46994863   3.57923666  -2.60649053
C   -0.08927254   5.13934719  -1.17954581
N    0.12061408   5.50766436  -0.11419065
C    4.48144732  -0.76155643   1.33679259
H    4.34634481  -0.86244177   0.28016132
H    4.38565663  -1.72046920   1.80177594
H    5.45492828  -0.36442188   1.53558413
C    3.41267418   0.19218547   1.90221310
N    2.61692399   0.90228966   2.32319438
C   -2.90623131   3.78145615   1.12544641
H   -2.07768539   4.41625019   1.36092120
H   -2.64007167   2.76256423   1.31496524
H   -3.74514339   4.04987013   1.73296559
C   -3.27438335   3.94795481  -0.36060280
N   -3.54848928   4.07192062  -1.46703399
C   -3.86102202   0.14087314   3.49103705
H   -3.85798570   0.42269139   4.52325284
H   -4.86610430  -0.04645350   3.17541475
H   -3.44450707   0.93254088   2.90394544
C   -3.01829358  -1.13453619   3.30465083
N   -2.39084394  -2.08413640   3.16587781
C    5.20630948   0.56010422  -3.38554027
H    6.08090483   0.43662004  -3.98947307
H    4.57912764   1.31272616  -3.81577536
H    4.67171770  -0.36558515  -3.33853067
C    5.61963228   0.98691760  -1.96476773
N    5.92736989   1.30469956  -0.90693799
C   -3.99082634  -2.97858480   0.19256096
H   -3.00087385  -2.59529894   0.32667358
H   -4.01521142  -4.01024699   0.47536402
H   -4.67332579  -2.42515702   0.80314371
C   -4.39823335  -2.84192960  -1.28627131
N   -4.70156638  -2.74018360  -2.38732916
C    0.82487085  -1.14792844   4.63088486
H   -0.24448974  -1.16790660   4.59975644
H    1.16837363  -0.15075400   4.45047405
H    1.15976043  -1.47172627   5.59416210
C    1.38757385  -2.08833546   3.54894218
N    1.80653181  -2.78851123   2.74338667
C   -0.60919076  -5.14557491   2.60104846
H    0.43366290  -5.34396189   2.73520893
H   -1.17971981  -5.97354185   2.96692610
H   -0.87651059  -4.26162559   3.14148607
C   -0.90424492  -4.94061837   1.10353857
N   -1.12392615  -4.78801892  -0.01142560
