90
Energy:   -421.39389479
C   -0.70608560  -4.28176589  -3.70784096
H   -1.25581350  -3.54311081  -4.25289885
H   -0.38383064  -5.05220594  -4.37677516
H    0.14745180  -3.82607921  -3.25097922
C   -1.60715202  -4.89186854  -2.61813731
N   -2.27803693  -5.34611770  -1.80680340
C    3.91709408   2.95752854   0.02895349
H    4.03731473   3.90414290   0.51306962
H    4.79344044   2.36359137   0.18437155
H    3.06701290   2.45293436   0.43839922
C    3.70626358   3.17617584  -1.48079611
N    3.54929070   3.33896870  -2.60487331
C    0.07671880   0.27392336   1.39901278
H    0.72362555   1.11993935   1.50230253
H    0.64116480  -0.56647914   1.05256878
H   -0.36199243   0.04253558   2.34711154
C   -1.03530941   0.59887013   0.38441786
N   -1.86326496   0.84080778  -0.37099418
C    0.21142366  -0.36895036  -3.11837219
H    0.00990846  -1.41404634  -3.00852595
H    0.61017017  -0.18319011  -4.09376618
H   -0.69573169   0.18435457  -2.99258704
C    1.23318542   0.07150600  -2.05366514
N    1.99393350   0.39944579  -1.26094235
C    3.20726303  -2.91494639  -0.41665731
H    2.54764051  -2.22990333   0.07376530
H    4.22120949  -2.62334936  -0.23837993
H    3.04699904  -3.90091461  -0.03314560
C    2.92796124  -2.90152084  -1.93105827
N    2.72000837  -2.89152491  -3.05859862
C    0.57079784   3.74909163   3.79769699
H    1.07081062   3.71153587   4.74293610
H    0.22436630   4.74516133   3.61678426
H    1.25054815   3.46165582   3.02295879
C   -0.62857875   2.78323904   3.81268225
N   -1.52156914   2.06411788   3.82383946
C   -4.30842709   1.58391312  -2.80583111
H   -3.24624357   1.48905895  -2.71825806
H   -4.55382579   2.58072521  -3.10756648
H   -4.66933251   0.89092555  -3.53686776
C   -4.96455379   1.28315152  -1.44544873
N   -5.45306994   1.05922084  -0.43258222
C   -0.05836025   3.44707325  -2.22819978
H   -0.35582445   4.39397721  -2.62793485
H   -0.85013938   2.73957403  -2.36022154
H    0.81634277   3.10298885  -2.73947234
C    0.25041797   3.59773400  -0.72701446
N    0.48031739   3.70990777   0.39068624
C    4.10715687  -0.25101713   1.93032295
H    3.65855335  -0.16917037   0.96235799
H    4.15756054  -1.28146879   2.21409742
H    5.09475677   0.15973999   1.90161580
C    3.25885987   0.52308298   2.95636448
N    2.62726419   1.09943571   3.72029903
C   -3.26527089   3.70329687   1.12101411
H   -3.25920936   4.56366588   1.75711835
H   -2.41887525   3.08818764   1.34496533
H   -4.16413475   3.14600425   1.28339576
C   -3.19847985   4.15239170  -0.35053364
N   -3.14875087   4.48676322  -1.44616783
C   -4.10878161   0.19563240   2.60431831
H   -4.08091722   0.80427058   3.48391101
H   -5.09910986  -0.18484652   2.46508882
H   -3.82983124   0.78344193   1.75486806
C   -3.12503141  -0.97875479   2.76132237
N   -2.39258466  -1.85313943   2.87821904
C    4.65220476   0.11611323  -3.60571197
H    5.41086358   0.56668918  -4.21095431
H    3.78116994   0.73755959  -3.60434942
H    4.40347127  -0.84575135  -4.00301194
C    5.17193342  -0.04243183  -2.16475896
N    5.55889502  -0.16047584  -1.09190394
C   -3.66093510  -2.17355044  -0.69430418
H   -2.90798858  -1.81891617  -0.02184136
H   -3.75639425  -3.23467794  -0.59533415
H   -4.59562748  -1.70803421  -0.46075784
C   -3.26196642  -1.82672307  -2.14072555
N   -2.96491610  -1.56849432  -3.21765200
C    0.37902744  -1.45361347   4.88204360
H   -0.58380014  -1.90917230   4.98367715
H    0.25994981  -0.41280403   4.66424707
H    0.92529250  -1.56671885   5.79511575
C    1.14995023  -2.13315085   3.73508806
N    1.72393730  -2.63909731   2.88112753
C   -0.73175466  -4.55955606   1.31824478
H    0.15424822  -4.79079059   1.87180568
H   -1.07301081  -5.43640108   0.80874881
H   -1.49234035  -4.21798168   1.98886795
C   -0.42110734  -3.45635964   0.28962633
N   -0.18981629  -2.63497976  -0.47622685
