90
Energy:   -416.55814835
C   -0.93735136  -3.81843544  -4.10774379
H   -1.89993847  -3.39999299  -4.31566720
H   -0.75085440  -4.63332429  -4.77563162
H   -0.18597375  -3.06848357  -4.24154580
C   -0.90178369  -4.32721997  -2.65465287
N   -0.87530195  -4.70603318  -1.57276062
C    3.48995568   2.33770430  -0.20626693
H    3.03128422   2.98011918   0.51610678
H    4.50624562   2.63725635  -0.35567386
H    3.46396850   1.32799368   0.14687357
C    2.72480270   2.43520475  -1.53917149
N    2.15511152   2.50779826  -2.53157953
C    0.35953064   0.56614310   0.75352086
H    0.99495481  -0.08083185   0.18557744
H   -0.15146416  -0.00281427   1.50189973
H    0.95073372   1.32410439   1.22349180
C   -0.67044697   1.22528018  -0.18257979
N   -1.43731212   1.71603770  -0.87954927
C   -0.49282993   0.89444124  -4.05730305
H   -1.52049294   0.65316593  -4.23221768
H    0.02486327   0.94889101  -4.99214425
H   -0.42810915   1.83870651  -3.55823050
C    0.14799700  -0.19570770  -3.17837408
N    0.62512177  -1.00737314  -2.52397150
C    2.57658550  -3.76056879  -1.42404687
H    3.57051237  -3.92964220  -1.06568429
H    1.92700455  -4.52259746  -1.04687848
H    2.23500008  -2.80319301  -1.08990603
C    2.57261243  -3.79838336  -2.96357740
N    2.56965429  -3.82653803  -4.10982787
C    1.57426687   3.32737297   3.70310563
H    2.20048945   2.98988619   4.50238539
H    1.40085748   4.37827694   3.80522873
H    2.05559734   3.13460509   2.76712453
C    0.22979593   2.57802583   3.75287252
N   -0.77122380   2.02010282   3.78992624
C   -4.67273213   1.78094437  -2.10316675
H   -3.66983920   1.73905177  -2.47377565
H   -5.02496479   2.79060844  -2.14071298
H   -5.30219446   1.16092562  -2.70670051
C   -4.70324137   1.28043955  -0.64708842
N   -4.72595688   0.90779095   0.43702809
C   -0.32642237   4.89698735  -1.84210540
H   -1.06068693   4.16519992  -2.10713919
H    0.47738995   4.86752473  -2.54773760
H   -0.77281213   5.86939005  -1.85036760
C    0.21594935   4.59308484  -0.43317808
N    0.61976974   4.36681560   0.61583234
C    4.04674241  -1.87379792   1.88659478
H    3.72813805  -2.66054149   2.53807464
H    5.11583334  -1.85447774   1.84696642
H    3.65645184  -2.04358470   0.90488973
C    3.52832849  -0.52491348   2.41890839
N    3.14234576   0.47939230   2.81524006
C   -2.84549465   3.69410759   1.65070822
H   -1.91633839   4.10984414   1.98045352
H   -2.73556874   2.63852706   1.51445433
H   -3.60090899   3.88222535   2.38477904
C   -3.25376498   4.34425685   0.31570962
N   -3.55774080   4.82832253  -0.67825753
C   -3.88734054   0.42092423   3.69946805
H   -4.11313642   0.29752054   4.73806707
H   -4.79230194   0.37797137   3.13017112
H   -3.41492824   1.36886241   3.54735321
C   -2.93981420  -0.70397106   3.24295469
N   -2.23433778  -1.54150673   2.90305975
C    3.71899359  -0.41899772  -4.02790793
H    4.56259475  -0.65173677  -4.64359438
H    3.42570474   0.59655965  -4.19381142
H    2.90651508  -1.06983485  -4.27527162
C    4.09631761  -0.60895234  -2.54698125
N    4.37725250  -0.75038218  -1.44436403
C   -2.37405259  -1.81183195  -0.48290308
H   -1.30571852  -1.86490327  -0.45559150
H   -2.78561836  -2.75518422  -0.19032967
H   -2.71072339  -1.05154015   0.19052713
C   -2.83475454  -1.47197806  -1.91253697
N   -3.17776807  -1.21894140  -2.97696438
C    0.64094379  -1.05756811   4.63694975
H   -0.27026479  -1.14698462   5.19066790
H    0.41994436  -0.76843783   3.63073803
H    1.26380596  -0.31629641   5.09242541
C    1.37402236  -2.41188617   4.63265774
N    1.91983267  -3.42023752   4.62946215
C   -0.75417845  -4.62352081   1.98705543
H   -0.87010571  -5.30731128   1.17225997
H   -1.70874478  -4.21902147   2.25178641
H   -0.33917349  -5.13822193   2.82833585
C    0.18923685  -3.48076350   1.56792146
N    0.89165242  -2.62992873   1.25585716
