90
Energy:   -416.54552600
C   -0.15352999  -4.70013940  -3.19418736
H    0.06941224  -5.64449170  -3.64518145
H    0.60848788  -3.99391675  -3.45007294
H   -1.09937775  -4.34909442  -3.55061202
C   -0.20982264  -4.86265335  -1.66382128
N   -0.25173507  -4.98365238  -0.52439417
C    3.35655467   2.85220309  -0.38010404
H    2.70662550   3.50753865   0.16121616
H    4.27967826   3.35350661  -0.58366416
H    3.54756241   1.97651541   0.20434975
C    2.68844940   2.44784237  -1.70740496
N    2.19101465   2.14677744  -2.69564084
C    0.35196155   0.77072756   0.54743572
H    1.06971918   0.08032051   0.15620399
H   -0.13089622   0.33891315   1.39907166
H    0.84713463   1.67368378   0.83790565
C   -0.69879960   1.08630616  -0.53326366
N   -1.48113903   1.32126877  -1.33789347
C   -0.19516976  -0.02955103  -4.15809314
H   -1.24524291  -0.23343315  -4.18414379
H    0.24034144  -0.28005955  -5.10280186
H   -0.03849790   1.00973212  -3.95748515
C    0.46385085  -0.87136050  -3.04964889
N    0.95452164  -1.49812592  -2.22436177
C    3.01763173  -3.63559033  -0.28224954
H    3.97033967  -3.53893795   0.19514558
H    2.44764711  -4.39582880   0.20974039
H    2.49403465  -2.70419142  -0.22531757
C    3.22038503  -4.02104128  -1.75938144
N    3.37134407  -4.30802702  -2.85917329
C    0.70312302   4.18685311   2.96224382
H    1.20641613   4.15200866   3.90584442
H    0.37011650   5.18581717   2.77230551
H    1.37555262   3.88174517   2.18787525
C   -0.50976050   3.23836725   2.99204542
N   -1.41280741   2.53217641   3.01423406
C   -4.55988694   0.78092415  -2.87468434
H   -3.56999274   1.12275563  -3.09414024
H   -5.27048558   1.50778900  -3.20877439
H   -4.73620969  -0.14731172  -3.37686712
C   -4.70809108   0.57876571  -1.35522144
N   -4.81843580   0.42824957  -0.22391224
C   -0.55973924   4.30411326  -2.93917420
H    0.32524923   4.21847298  -3.53445675
H   -1.10134066   5.18012788  -3.22928687
H   -1.17360912   3.44017752  -3.08640837
C   -0.17044548   4.40998686  -1.45295714
N    0.11940142   4.48881456  -0.34640098
C    3.93830225  -0.89239645   2.60365681
H    3.56130762  -1.37366415   1.72550156
H    3.73866319  -1.50360318   3.45891681
H    4.99417950  -0.74901540   2.50637266
C    3.24854856   0.47359097   2.77662560
N    2.73499558   1.49063070   2.90540872
C   -3.37991718   3.65946722   0.43932678
H   -4.26178477   3.84460772   1.01633001
H   -2.59396976   4.30481635   0.77205829
H   -3.08043196   2.63968824   0.56285218
C   -3.67289919   3.93190288  -1.04779808
N   -3.89103761   4.13474362  -2.15503014
C   -4.19058105   0.56063687   3.04054810
H   -3.81211491   1.27421535   2.33878651
H   -4.28630105   1.02155535   4.00142838
H   -5.14870361   0.21335525   2.71451786
C   -3.21854211  -0.62993698   3.13685086
N   -2.49481494  -1.51637333   3.20855264
C    4.13024620  -0.81572770  -3.41918684
H    5.07988846  -1.04273982  -3.85684568
H    3.73968781   0.07838788  -3.85841408
H    3.45328099  -1.62522136  -3.59621003
C    4.29990751  -0.61079189  -1.90234263
N    4.42622806  -0.45820786  -0.77298317
C   -2.11333177  -2.09470059  -0.18356677
H   -1.05037852  -2.03832682  -0.07469725
H   -2.47493124  -2.97851565   0.29915039
H   -2.56391261  -1.23382475   0.26450553
C   -2.47425798  -2.14282144  -1.67990118
N   -2.74298394  -2.17864959  -2.79399016
C    0.15818759  -0.01991334   4.76372867
H   -0.75059516  -0.09726324   5.32322048
H   -0.06155247  -0.07020266   3.71774378
H    0.63419411   0.91277677   4.98374237
C    1.09732493  -1.17858691   5.14726045
N    1.79655536  -2.04127204   5.43281730
C   -0.36142631  -4.29269336   2.94222020
H    0.04975324  -4.52594923   3.90212814
H   -0.23918805  -5.13097556   2.28858433
H   -1.40281378  -4.06941994   3.04498311
C    0.36967156  -3.07182418   2.35351455
N    0.91400716  -2.16283158   1.91519643
