90
Energy:   -415.78671911
C    1.24500663  -3.16516027  -4.15009569
H    1.88651150  -3.32311167  -4.99177440
H    0.97100442  -2.13208232  -4.09938243
H    0.36397570  -3.76305141  -4.25597190
C    1.98410480  -3.56417272  -2.85931184
N    2.53439698  -3.86125562  -1.89826458
C    4.69164474   1.94248088   1.88013273
H    4.99403279   2.62832753   1.11653859
H    4.40516940   1.01384799   1.43239182
H    5.50615302   1.77724212   2.55405521
C    3.49645714   2.52973292   2.65360649
N    2.60658566   2.96696876   3.22949286
C   -1.16034802   0.01976055  -0.29369490
H   -1.89451911  -0.75206207  -0.39460493
H   -1.61772197   0.97172557  -0.46536540
H   -0.74956511  -0.00565662   0.69398443
C   -0.03663220  -0.20292853  -1.32290447
N    0.80002531  -0.36873067  -2.08919777
C    1.75334111   2.16189288  -4.26930872
H    2.80434609   2.35394663  -4.32765322
H    1.48004980   1.97970969  -3.25096682
H    1.21479282   3.01030547  -4.63681507
C    1.40912115   0.92660453  -5.12205447
N    1.15283374   0.00687620  -5.75696244
C    4.06149484  -0.75262446  -1.48138794
H    3.22757216  -1.17986607  -0.96472777
H    4.96872653  -1.03555165  -0.98967465
H    4.07656182  -1.10879760  -2.49025501
C    3.93429929   0.78211356  -1.48067752
N    3.83959641   1.92479578  -1.48014857
C   -0.72635722   3.66963058   4.20474598
H    0.25482283   3.89395710   4.56787611
H   -1.41679072   3.66505975   5.02216863
H   -1.02148817   4.41182050   3.49274110
C   -0.72004698   2.28514553   3.53038604
N   -0.71534871   1.25433347   3.02829442
C   -2.04450273  -0.52676117  -4.40727936
H   -2.97028712  -0.00428830  -4.28543706
H   -1.93059390  -0.81663868  -5.43094674
H   -1.23426861   0.11274274  -4.12540258
C   -2.04214027  -1.78193442  -3.51501566
N   -2.04038132  -2.71646797  -2.85068477
C    1.02076974   2.95540569   0.03766707
H    1.04267801   2.66500206  -0.99193768
H    1.19862997   2.09881507   0.65371685
H    1.77950669   3.68804400   0.21782934
C   -0.35876406   3.55176959   0.37357869
N   -1.38588967   3.99578961   0.62368016
C    2.03100395  -0.57528718   3.98460560
H    3.05364603  -0.66249591   4.28709196
H    1.47849702  -1.41629687   4.34838836
H    1.61571426   0.32519044   4.38656780
C    1.95206736  -0.53536113   2.44714831
N    1.89329548  -0.50563436   1.30244147
C   -3.69047550   3.53988011  -2.01803359
H   -3.64929983   3.70766085  -0.96207224
H   -4.46818912   2.83858698  -2.23768915
H   -3.89174622   4.46399898  -2.51842694
C   -2.34072964   2.97769775  -2.50149726
N   -1.33578250   2.55912744  -2.86145794
C   -4.02932698   1.66880957   1.56929647
H   -3.04178292   1.92237388   1.24470125
H   -4.72064811   2.40583983   1.21750027
H   -4.29887156   0.71070293   1.17651602
C   -4.06772391   1.62205113   3.10810748
N   -4.09631217   1.58723735   4.25382223
C    3.76525155  -3.58585939   1.28519856
H    2.92683014  -3.20726952   0.73873773
H    3.41850232  -4.12713016   2.14058738
H    4.33512878  -4.23834233   0.65718181
C    4.65081567  -2.41263072   1.74444869
N    5.31015841  -1.53910865   2.08638128
C   -4.91474531  -2.36707540  -0.90425308
H   -3.99564289  -2.90892813  -0.82334233
H   -5.54178780  -2.83532537  -1.63395081
H   -5.41145534  -2.36377704   0.04346384
C   -4.62020161  -0.91802722  -1.33448949
N   -4.40090045   0.16085502  -1.65482005
C   -2.06583363  -1.51690264   4.28532039
H   -2.24269381  -2.40714569   4.85196664
H   -2.51964881  -0.68345027   4.77959562
H   -1.01210980  -1.35112864   4.20115289
C   -2.67470825  -1.67375745   2.87952230
N   -3.12804308  -1.79054299   1.83284172
C   -0.28175175  -3.51312098   0.15063253
H   -1.29621643  -3.19197588   0.03826076
H   -0.17700476  -4.50560919  -0.23523574
H    0.36367210  -2.85109489  -0.38792908
C    0.09863451  -3.49971142   1.64285453
N    0.38184936  -3.48972739   2.75388163
