90
Energy:   -418.35861761
C   -0.74940689  -3.91194275  -3.44264940
H    0.24128963  -3.69304609  -3.78250942
H   -1.23115195  -4.56207004  -4.14276032
H   -0.70101417  -4.39021801  -2.48671530
C   -1.55156732  -2.60293181  -3.32169896
N   -2.14881222  -1.62831366  -3.23164587
C    3.71336833   2.68553698   0.40948090
H    4.59897449   3.26724321   0.55854388
H    3.87782411   1.68876255   0.76203462
H    2.90209071   3.12593438   0.95057039
C    3.36969680   2.64908179  -1.09123923
N    3.11381773   2.62193925  -2.20859358
C   -1.12071158   0.60513628   0.13479430
H   -1.76898407   0.58641297   0.98584800
H   -1.38114012  -0.19218725  -0.52954842
H   -1.22563704   1.54112300  -0.37296410
C    0.33815546   0.43251219   0.59686343
N    1.42434829   0.30398570   0.94089490
C    1.14942084  -0.23812628  -2.74485536
H    0.61893844  -1.01248190  -2.23118040
H    1.94920705   0.11574189  -2.12839902
H    1.54824796  -0.62507429  -3.65924436
C    0.18781002   0.92397928  -3.05536354
N   -0.52815293   1.78921968  -3.28655099
C    3.05032344  -3.06472945  -0.12905048
H    2.48442986  -2.24226218   0.25593295
H    4.08305856  -2.93404598   0.11849567
H    2.69283618  -3.97647995   0.30200980
C    2.89293473  -3.12431492  -1.65982752
N    2.77575168  -3.16867902  -2.79956062
C    0.92359457   3.00450690   3.43625483
H    0.83275747   4.01287620   3.09007544
H    1.56390805   2.45720307   2.77643951
H    1.34070678   3.00189091   4.42160231
C   -0.46757291   2.34468120   3.46597145
N   -1.50336034   1.85341098   3.48809683
C   -3.85279706   1.57297606  -3.13120916
H   -3.25736330   0.80129297  -3.57264324
H   -3.31577708   2.49802375  -3.15941202
H   -4.76714387   1.67457034  -3.67760424
C   -4.16670852   1.20602519  -1.66887997
N   -4.40042987   0.93281359  -0.58010942
C    0.18710777   4.80618887  -2.26217157
H    0.37034218   5.86038248  -2.26109626
H   -0.77691367   4.61216505  -2.68397308
H    0.93722746   4.31438686  -2.84556709
C    0.23124590   4.27601368  -0.81698435
N    0.26410875   3.88127416   0.25902322
C    4.45947325  -0.77253159   2.46364080
H    3.92416343  -0.71572966   1.53891537
H    4.46262054  -1.78409887   2.81238258
H    5.46662378  -0.44388945   2.31350335
C    3.77584440   0.12861939   3.50871425
N    3.26685164   0.79956725   4.28681893
C   -3.16813457   3.77778632   1.23354034
H   -2.25496993   4.10216098   1.68720497
H   -3.22024064   2.70941151   1.26109594
H   -3.99818748   4.18928538   1.76887183
C   -3.21275964   4.25634020  -0.22953682
N   -3.24598503   4.61264531  -1.31886428
C   -4.50283866   0.24485092   2.98449133
H   -4.06628710   0.89742277   3.71145274
H   -5.42782781  -0.13988371   3.36035491
H   -4.68351013   0.78798132   2.08046352
C   -3.53982009  -0.92233830   2.69837151
N   -2.82280899  -1.79136372   2.48534229
C    4.81028808  -0.22930590  -3.58253578
H    5.76958559  -0.15126577  -4.05003786
H    4.22281248   0.63060593  -3.82814349
H    4.31451494  -1.11126891  -3.93074452
C    4.98868551  -0.30988828  -2.05502773
N    5.12151050  -0.36988552  -0.91772855
C   -4.13859812  -2.44952118  -0.62747239
H   -4.62368737  -2.08289775  -1.50791311
H   -3.31167309  -1.81508363  -0.38543296
H   -4.83343847  -2.45581340   0.18619608
C   -3.63053450  -3.88124713  -0.87972656
N   -3.25225804  -4.94723218  -1.06754125
C    0.20967956  -1.19778778   3.95965901
H   -0.49302915  -1.64552153   4.63095263
H   -0.31373310  -0.75824256   3.13641039
H    0.76322689  -0.44108739   4.47530324
C    1.17768515  -2.27508723   3.43621743
N    1.89840931  -3.07718563   3.04649138
C   -0.89161286  -4.61419160   1.57289473
H   -1.40886248  -5.41401427   1.08541479
H   -1.51569834  -4.19873894   2.33631826
H    0.00934210  -4.98784364   2.01285315
C   -0.54564451  -3.52320454   0.54252919
N   -0.28805536  -2.71091509  -0.22462479
