90
Energy:   -417.33077658
C   -0.82926299  -3.57462631  -4.04029514
H   -0.65982660  -3.92069105  -5.03850888
H   -1.27333859  -4.35766087  -3.46188973
H    0.10269656  -3.28953396  -3.59862462
C   -1.77531457  -2.35988504  -4.07176038
N   -2.47969298  -1.45545496  -4.09518768
C    3.96565985   2.95753958   0.54871704
H    4.11100066   3.85502429   1.11289558
H    4.82426812   2.32762865   0.65313517
H    3.10020003   2.44397019   0.91220688
C    3.76633849   3.31159001  -0.93671869
N    3.61793467   3.57519665  -2.04269310
C    0.06454946   0.10698946   1.46430283
H    0.72123417   0.92404306   1.67898581
H    0.62787106  -0.70516076   1.05444936
H   -0.41553725  -0.21118122   2.36606958
C   -1.00038358   0.55786102   0.44733063
N   -1.79327463   0.89355539  -0.30985140
C    0.45563284   0.22457773  -3.09303903
H   -0.53774634   0.07403704  -2.72502342
H    0.75060742  -0.62039976  -3.67947073
H    0.48169821   1.10597366  -3.69914208
C    1.42330043   0.38882875  -1.90634571
N    2.14377294   0.51112109  -1.02279860
C    3.24109042  -2.82447762  -0.62098529
H    4.24416330  -2.52540981  -0.39894153
H    3.10606126  -3.85025291  -0.34812769
H    2.55667299  -2.21533541  -0.06833925
C    2.97680538  -2.65527120  -2.12867312
N    2.78003315  -2.52928934  -3.25121524
C    0.39873441   3.24968926   4.23387904
H    0.83819541   3.08074490   5.19472867
H    0.08977757   4.27127137   4.15762453
H    1.11752104   3.03651712   3.47046400
C   -0.82361162   2.32933516   4.05947000
N   -1.73370380   1.64408969   3.92961454
C   -4.03042660   1.46304778  -2.87023059
H   -3.04571333   1.06151342  -2.75186627
H   -3.96523017   2.50720257  -3.09470615
H   -4.52830451   0.95658506  -3.67055064
C   -4.82494112   1.26708210  -1.56564478
N   -5.41649329   1.12117675  -0.59432134
C    0.00519035   3.74436905  -1.78267501
H    0.90612090   3.52944767  -2.31842973
H   -0.34200364   4.72156453  -2.04619809
H   -0.74125347   3.02052285  -2.03519707
C    0.28254523   3.68906149  -0.26886679
N    0.48904855   3.64788250   0.85823225
C    4.11848064  -0.47306592   2.09160391
H    4.17444201  -1.52945368   2.25226943
H    5.09679208  -0.04751604   2.17353750
H    3.72673460  -0.28115233   1.11456589
C    3.19372074   0.15865805   3.14864883
N    2.50519497   0.62900526   3.93566683
C   -3.38596959   3.54723703   1.30778114
H   -3.44070871   4.37356064   1.98534523
H   -2.52660675   2.95301739   1.53864394
H   -4.26855303   2.94968233   1.40198268
C   -3.27376565   4.07321381  -0.13525687
N   -3.19022473   4.46482744  -1.20966426
C   -4.18393088  -0.14848411   2.36800231
H   -4.18920915   0.32734023   3.32636733
H   -5.16597997  -0.50909900   2.14342367
H   -3.88349560   0.55661722   1.62136328
C   -3.19531798  -1.32912053   2.38650056
N   -2.45925075  -2.20815801   2.40027335
C    4.84855547   0.48453578  -3.36028541
H    5.64081660   0.94353322  -3.91394941
H    4.00700671   1.14457643  -3.32801904
H    4.56543574  -0.43140778  -3.83545875
C    5.32697442   0.19223096  -1.92596564
N    5.68317908  -0.02540327  -0.85804938
C   -3.95096980  -2.09870383  -1.05592519
H   -4.38761362  -1.68427684  -1.94051132
H   -3.07837829  -1.53820555  -0.79262911
H   -4.65855223  -2.05448031  -0.25450740
C   -3.56001811  -3.56551887  -1.31517496
N   -3.26893681  -4.65762933  -1.50819819
C    0.21064167  -2.08385489   4.65080544
H   -0.77641201  -2.48888210   4.56969955
H    0.16117017  -1.01537524   4.62247013
H    0.64947689  -2.39619231   5.57534213
C    1.07086998  -2.58919897   3.47767517
N    1.71134905  -2.96545061   2.60422636
C   -0.53043199  -4.62355953   0.65716689
H    0.42876024  -4.97132100   0.97952137
H   -1.01800826  -5.39226714   0.09479949
H   -1.12508747  -4.37470192   1.51118904
C   -0.35334673  -3.37484538  -0.22654900
N   -0.22149871  -2.44512093  -0.88451565
