90
Energy:   -420.85946741
C   -0.66330193  -3.80052825  -3.99843726
H   -0.28580418  -2.93777076  -3.49045581
H   -1.25038538  -3.49167673  -4.83798646
H    0.15472165  -4.40146969  -4.33697220
C   -1.53899919  -4.62186441  -3.03398861
N   -2.19099561  -5.23338651  -2.31591274
C    3.72984186   2.61533341   0.51537420
H    4.61325898   3.21482579   0.58667126
H    3.96621046   1.60117005   0.76134502
H    2.99207708   2.98490097   1.19656584
C    3.18001629   2.68024875  -0.92166367
N    2.77064616   2.72858118  -1.99160368
C   -1.09112446   0.65778374   0.38344333
H   -1.66262662   0.58991941   1.28548541
H   -1.44530081  -0.06786280  -0.31862170
H   -1.19663023   1.63786319  -0.03274400
C    0.39301268   0.38926396   0.69462507
N    1.49802024   0.18933878   0.92631402
C    0.72027141   0.00201595  -2.88659182
H    0.15687383  -0.84673895  -2.55933280
H    1.54330930   0.16167626  -2.22174876
H    1.08945882  -0.17460270  -3.87523008
C   -0.18477206   1.24799808  -2.89157716
N   -0.85861806   2.17568841  -2.89528896
C    2.97403429  -3.01479846  -0.66993629
H    2.45018597  -2.22579118  -0.17198988
H    4.02108184  -2.93233140  -0.46551099
H    2.61512485  -3.95919389  -0.31751558
C    2.73757938  -2.90984640  -2.18805162
N    2.56152795  -2.83170482  -3.31835748
C    1.20373362   2.54777915   3.79609876
H    1.11884799   3.59519917   3.59458969
H    1.77184636   2.08002648   3.01933982
H    1.69690469   2.40396731   4.73471453
C   -0.20155235   1.92047190   3.85316847
N   -1.24785164   1.45341315   3.89565947
C   -4.14675322   2.19006870  -2.60963215
H   -3.66680190   1.50828700  -3.28024428
H   -3.56133613   3.08202409  -2.52838253
H   -5.11873298   2.43429233  -2.98447778
C   -4.28116329   1.53607507  -1.22189072
N   -4.38123770   1.04914708  -0.18865415
C    0.00188068   5.03727110  -1.56385087
H    0.68307501   4.59219885  -2.25867831
H    0.20761085   6.08423050  -1.48353770
H   -1.00143201   4.89630362  -1.90793064
C    0.16939299   4.37389013  -0.18418956
N    0.29411352   3.87997285   0.84303099
C    4.59444206  -1.10304111   2.06740966
H    4.02392847  -0.88331193   1.18926759
H    4.55871175  -2.15457223   2.26210105
H    5.61030671  -0.80243435   1.91723080
C    4.00489335  -0.33851576   3.26721519
N    3.56594754   0.23070811   4.16052495
C   -3.07520768   3.60768120   2.00998905
H   -2.11355098   3.83439648   2.42074050
H   -3.16592370   2.54984358   1.87713856
H   -3.83797917   3.94999937   2.67774427
C   -3.23089075   4.31119510   0.64894865
N   -3.34680388   4.83499317  -0.36440780
C   -4.36493617  -0.05855639   3.25577426
H   -3.84511669   0.67555882   3.83522463
H   -5.14218677  -0.49513552   3.84753373
H   -4.79257721   0.40616559   2.39202909
C   -3.37894264  -1.15564013   2.81325418
N   -2.64482564  -1.97246884   2.48377786
C    4.41718835   0.20590998  -3.86531198
H    5.30479997   0.47272917  -4.39996449
H    3.71022755   1.00683769  -3.92548115
H    3.99326992  -0.67711436  -4.29596296
C    4.76731246  -0.05995288  -2.38939530
N    5.02799578  -0.25789987  -1.29050825
C   -3.84974149  -2.29754026  -0.99211646
H   -4.80815721  -1.85071293  -0.82876154
H   -3.23984646  -2.16096208  -0.12362723
H   -3.97151042  -3.34357809  -1.18152679
C   -3.17287479  -1.63169436  -2.20459356
N   -2.66891676  -1.13594183  -3.10733787
C    0.46141383  -1.66092711   3.83251140
H   -0.22484920  -2.18100000   4.46770225
H   -0.08380093  -1.07208869   3.12476196
H    1.08196459  -1.02190045   4.42535266
C    1.34069363  -2.67962061   3.08369193
N    1.99535741  -3.43808422   2.52616179
C   -0.91751913  -4.70484372   1.01295500
H   -1.46757216  -5.42747468   0.44714023
H   -1.50385274  -4.38494662   1.84888432
H   -0.00690816  -5.14414162   1.36324645
C   -0.59257039  -3.49294530   0.12003254
N   -0.35063128  -2.59063183  -0.54478882
