90
Energy:   -417.07101298
C   -1.54617855  -2.32003893  -3.67219878
H   -2.33629772  -1.61825220  -3.50454655
H   -1.40770282  -2.45657851  -4.72437771
H   -0.64124108  -1.94858714  -3.23859662
C   -1.91073327  -3.66818759  -3.02320336
N   -2.18216083  -4.67194554  -2.53999677
C    4.09063762   2.92219194   0.86508717
H    4.91401686   3.53914218   1.15888846
H    4.26008843   1.91927414   1.19726394
H    3.18986462   3.29624998   1.30507316
C    3.95814406   2.93933276  -0.66910697
N    3.85949657   2.95209489  -1.81138424
C   -1.71866625   0.62891245   0.02798128
H   -2.58278789   1.16739509   0.35696521
H   -0.85186123   1.00394320   0.53087300
H   -1.83932430  -0.41036799   0.25211714
C   -1.54887061   0.80992334  -1.49188862
N   -1.42245004   0.94469418  -2.62350084
C    1.83590216   0.17714292  -1.97088472
H    1.23850555  -0.65427671  -2.28194561
H    2.82607563   0.07113992  -2.36231666
H    1.40279679   1.08440739  -2.33720425
C    1.89394518   0.22054819  -0.43259119
N    1.93716085   0.25286538   0.71273826
C    3.28627243  -3.31944722  -0.20690748
H    4.24137634  -3.33447632   0.27522406
H    2.83931916  -4.28954228  -0.14328786
H    2.65441744  -2.60329312   0.27556704
C    3.46431454  -2.93233073  -1.68678647
N    3.59687498  -2.64410490  -2.78862365
C    0.81260018   2.82122438   3.19796756
H    1.21707377   2.78114382   4.18776291
H    0.82069469   3.83305270   2.85006381
H    1.40561505   2.21497233   2.54551763
C   -0.63469017   2.29518282   3.21316368
N   -1.71226362   1.90352097   3.22447788
C   -4.83091991   1.49232972  -2.79277525
H   -4.11216849   2.21105114  -3.12704474
H   -5.74725381   1.62871245  -3.32815458
H   -4.45759079   0.50541594  -2.97032987
C   -5.08386416   1.68203742  -1.28558243
N   -5.27219265   1.82328341  -0.16340886
C    0.48117047   3.96949276  -2.68117581
H   -0.35153755   3.46038978  -3.11970940
H    1.38997227   3.60224052  -3.11024943
H    0.39667393   5.01941927  -2.86936125
C    0.49326415   3.71967940  -1.16162093
N    0.50226845   3.53368201  -0.03024325
C    4.50952090  -1.09677788   2.74930704
H    4.00010731  -1.21440004   1.81573166
H    4.41748063  -1.99615191   3.32163042
H    5.54430686  -0.89379604   2.56788081
C    3.88584550   0.07479635   3.53035943
N    3.42149082   0.94708661   4.11188843
C   -2.93732103   4.25941655   0.97557660
H   -3.48555822   5.10673451   1.33108811
H   -1.94226931   4.28821785   1.36793058
H   -3.42151479   3.36094190   1.29682230
C   -2.88352279   4.29159164  -0.56314707
N   -2.84346756   4.31554745  -1.70879678
C   -4.58431795   0.01833941   2.58731501
H   -4.06241593   0.91455871   2.32404819
H   -4.95626850   0.10278109   3.58702571
H   -5.40244910  -0.12895843   1.91362081
C   -3.62263701  -1.18108269   2.49700221
N   -2.90662184  -2.07410696   2.42976022
C    5.80727390   0.15747943  -3.00979364
H    6.85412055   0.20661874  -3.22565838
H    5.34270524   1.08139299  -3.28449129
H    5.36563837  -0.64296192  -3.56580694
C    5.60485350  -0.09095255  -1.50350431
N    5.45414232  -0.27592145  -0.38200344
C   -4.57383263  -3.96364819  -0.06859023
H   -4.22570699  -4.73759266  -0.72029467
H   -5.62706888  -4.07347008   0.08481004
H   -4.06725817  -4.03409138   0.87126038
C   -4.28808848  -2.59029730  -0.70408815
N   -4.07533897  -1.56777514  -1.17724524
C    0.23913961  -1.11928041   3.25859394
H   -0.54823814  -1.36250909   3.94107197
H   -0.18146288  -0.79727995   2.32891209
H    0.83797784  -0.33386849   3.67020054
C    1.11585033  -2.36306112   3.02197640
N    1.76860131  -3.28911239   2.84580390
C   -0.88057760  -4.57254616   0.83569898
H   -1.35825128  -5.24650721   0.15562211
H   -1.56959289  -4.29512893   1.60589162
H   -0.02980438  -5.05129794   1.27374095
C   -0.42589426  -3.31277259   0.07554530
N   -0.08736185  -2.37481391  -0.49042366
