90
Energy:   -416.53860572
C   -1.15154526  -3.93622688  -3.42584570
H   -1.93679166  -3.23398686  -3.61332163
H   -1.44696199  -4.90336617  -3.77551649
H   -0.26571857  -3.62636828  -3.93984746
C   -0.87112595  -4.00093486  -1.91297495
N   -0.66234103  -4.04911289  -0.78657392
C    3.75002702   3.24914130   0.52610880
H    4.40118374   2.44757780   0.80609282
H    2.73248506   2.93534664   0.63118195
H    3.93027794   4.09278356   1.15909887
C    4.01792176   3.64020978  -0.93912083
N    4.21738158   3.93137805  -2.03005088
C   -0.00011008  -0.51750966   0.62912250
H   -0.88412766  -0.09466366   1.05879023
H    0.67848046  -0.79375119   1.40893311
H   -0.26034290  -1.38475033   0.05897199
C    0.67009320   0.51966962  -0.29103331
N    1.16909001   1.29189674  -0.97613113
C   -0.19013639   0.35538682  -4.13926002
H   -0.66501233   1.20221381  -4.58901227
H    0.01381010  -0.37950058  -4.88975681
H    0.72722628   0.66210964  -3.68180409
C   -1.12051866  -0.24717514  -3.07019131
N   -1.81323055  -0.69580992  -2.27422106
C    2.70042667  -2.85232594  -0.50071219
H    2.66998966  -2.02985581   0.18303971
H    3.70580956  -3.20855189  -0.58560860
H    2.07232869  -3.63974385  -0.13965118
C    2.20122407  -2.39007502  -1.88227683
N    1.82954505  -2.04590820  -2.91091451
C    1.04057315   3.72176686   3.18656972
H    1.88720012   3.17074274   3.53940873
H    0.77339396   4.46565935   3.90777590
H    1.28493180   4.19582762   2.25896294
C   -0.14509442   2.76188578   2.97580752
N   -1.02787782   2.04721067   2.81888547
C   -4.95455381   0.36131237  -3.16890928
H   -4.46136326   1.22372924  -3.56627613
H   -5.95425624   0.31598977  -3.54764402
H   -4.42235914  -0.51993725  -3.46057181
C   -4.99151789   0.45364829  -1.63212441
N   -5.01903933   0.52239658  -0.48791822
C    0.91386344   4.31465373  -2.82319982
H    1.08732125   3.26634473  -2.94913954
H    1.75690114   4.86222805  -3.18973618
H    0.03880485   4.59949563  -3.36912715
C    0.71029967   4.62537849  -1.32867250
N    0.55873718   4.85672719  -0.21592898
C    4.45119729  -1.18097315   2.73866700
H    4.00744356  -2.11688354   2.47023720
H    4.78953002  -1.22449768   3.75283448
H    5.28159278  -0.98199762   2.09387932
C    3.40777413  -0.05769309   2.59337422
N    2.63089815   0.77863998   2.48519714
C   -2.26129132   2.54535113  -0.29578708
H   -1.32849964   2.87737793   0.10987048
H   -2.39061725   1.50395569  -0.08681471
H   -3.06110074   3.10026554   0.14836827
C   -2.26655371   2.76765012  -1.81964910
N   -2.27047181   2.93316182  -2.95423364
C   -4.12637846   0.68453870   2.78921326
H   -3.66424067   1.39929158   2.14078658
H   -4.24089295   1.10944989   3.76452655
H   -5.08740854   0.41941244   2.40058962
C   -3.24352966  -0.57414424   2.87806861
N   -2.58620861  -1.51129090   2.94422546
C    3.97867757   0.72112204  -3.04098679
H    3.81379330  -0.12662216  -3.67268540
H    4.74829183   1.33451859  -3.46091255
H    3.07456941   1.28782267  -2.96137575
C    4.40955911   0.24278133  -1.64201172
N    4.73037000  -0.11336507  -0.60041118
C   -3.75882354  -2.66791852  -0.03978408
H   -3.52639174  -3.58573538   0.45870147
H   -4.55071513  -2.17032943   0.48003503
H   -2.89218763  -2.04051835  -0.05428687
C   -4.20092832  -2.96609241  -1.48451093
N   -4.53009542  -3.18809642  -2.56017575
C    0.18488457  -0.60022386   4.75659383
H   -0.30804416   0.21775985   5.23911231
H   -0.39503855  -1.49056905   4.88258477
H    0.29018788  -0.38782830   3.71318670
C    1.57743366  -0.80176864   5.38252252
N    2.61424976  -0.95182790   5.84855488
C   -0.89299639  -4.37599949   2.58308166
H   -0.73015063  -5.39852035   2.31320662
H   -1.54206372  -3.91709878   1.86682693
H   -1.34289222  -4.33036734   3.55282933
C    0.45431527  -3.63048265   2.60665967
N    1.45745005  -3.07541148   2.62421457
