90
Energy:   -419.97681485
C   -1.02921618  -4.70822884  -3.60859952
H   -0.14407854  -4.19733454  -3.29171064
H   -1.66838783  -4.02544397  -4.12837209
H   -0.76215205  -5.51350154  -4.26060544
C   -1.76759737  -5.26724478  -2.37819536
N   -2.31735572  -5.68345756  -1.46210354
C    4.23582829   3.07639803   0.73826721
H    4.26778951   3.83839026   1.48876471
H    5.19509488   2.60817125   0.66430520
H    3.50141355   2.34491475   1.00372210
C    3.86620879   3.70638560  -0.61749718
N    3.59101027   4.17543998  -1.62692540
C   -0.91562324   0.65884160   0.33230481
H   -1.38386296   0.64861009   1.29435838
H   -1.30092131  -0.14432963  -0.26045184
H   -1.11915639   1.59020065  -0.15353844
C    0.60577143   0.48907239   0.50004473
N    1.73851891   0.36267150   0.62493471
C   -0.59026951  -1.02652010  -4.02891312
H   -1.46911773  -1.19321186  -4.61605864
H   -0.52863968  -1.76858009  -3.26050710
H    0.27465014  -1.08943254  -4.65569466
C   -0.65892382   0.37195249  -3.38769474
N   -0.71004008   1.41317890  -2.91027851
C    3.09541232  -2.81475434  -0.83817732
H    2.54271953  -2.12849665  -0.23115076
H    4.13531692  -2.56538236  -0.80196772
H    2.95421261  -3.80968195  -0.47064394
C    2.59741265  -2.72940948  -2.29293249
N    2.22662926  -2.66586635  -3.37606383
C    1.36681984   2.98086718   3.49166398
H    1.25217565   4.02516102   3.28866821
H    1.88759057   2.51506383   2.68127878
H    1.92524002   2.85237808   4.39529917
C   -0.02140885   2.33320045   3.64961617
N   -1.05500821   1.85098312   3.76721875
C   -4.15019129   1.50272513  -2.65401278
H   -3.91954080   0.65575139  -3.26584283
H   -3.39156176   2.24749233  -2.77526515
H   -5.09675847   1.90686375  -2.94655619
C   -4.21166599   1.06816787  -1.17787564
N   -4.25743669   0.74462024  -0.07882444
C    0.23903068   4.51034217  -2.13278337
H    0.51080168   5.53454328  -2.28128518
H   -0.76568085   4.35588853  -2.46684609
H    0.90098923   3.88122678  -2.69038878
C    0.34119185   4.16401125  -0.63571357
N    0.41725548   3.90615213   0.47892294
C    4.92613168  -0.75891441   1.88874726
H    5.82686760  -0.35177310   1.47909992
H    4.20188366  -0.87743651   1.11008404
H    5.13377492  -1.71102014   2.33065001
C    4.37326901   0.19601193   2.96301844
N    3.96163762   0.90699799   3.76286216
C   -2.95462524   3.70284492   1.62612656
H   -2.00585341   4.02180472   2.00427581
H   -3.04012280   2.64104958   1.72702211
H   -3.73728580   4.17790919   2.17989139
C   -3.07064891   4.08823608   0.13965014
N   -3.15703381   4.37517731  -0.96709913
C   -4.04131105   0.09773757   3.47389133
H   -4.82451117  -0.37938091   4.02512242
H   -4.45034378   0.55811963   2.59888295
H   -3.57769161   0.84326160   4.08556938
C   -2.99265055  -0.95117368   3.05952874
N   -2.21187514  -1.73213578   2.75101696
C    2.81905446   0.99242497  -2.76995627
H    3.07979153   1.85268758  -3.35035665
H    2.01614386   1.23931745  -2.10717595
H    2.51268795   0.20154054  -3.42229090
C    4.04032001   0.53723083  -1.94964611
N    4.94960772   0.19831811  -1.33888791
C   -3.87120384  -2.65122864  -0.32809637
H   -4.84144910  -2.32020967  -0.02158249
H   -3.12379747  -2.14695427   0.24808950
H   -3.78905173  -3.70676582  -0.17320488
C   -3.66871970  -2.33424159  -1.82145479
N   -3.51796106  -2.09823032  -2.93332802
C    0.93635249  -1.15567162   3.85495997
H    0.31856572  -1.65251059   4.57356329
H    0.32050103  -0.60338867   3.17627771
H    1.60147333  -0.48585193   4.35880017
C    1.75459399  -2.19951101   3.07234885
N    2.36381198  -2.97669689   2.48965930
C   -0.47602518  -4.44714003   1.31125860
H   -1.17788009  -5.20739520   1.03865642
H   -0.79334982  -3.97765454   2.21888603
H    0.48846811  -4.88735427   1.45569962
C   -0.39731772  -3.39506776   0.18940787
N   -0.33871643  -2.61175213  -0.64586100
