24
Energy:   -282.65250887
O    0.29239786   2.67779640   1.99944682
H    1.01454584   3.26095974   2.23323018
H    0.54286144   2.31419789   1.15015537
O   -1.53759540   0.60292150   2.10180374
H   -1.94505273   0.79189413   1.25652288
H   -0.99563201   1.37060152   2.28394357
O    0.22657105  -1.13626904   0.97321106
H   -0.33449111  -1.43913738   0.25926998
H   -0.36515945  -0.66592006   1.56045776
O   -2.10766482   0.93648726  -0.64439347
H   -1.93776053   0.05593292  -0.97904019
H   -2.84169852   1.25530811  -1.16954072
O    2.49189757  -2.11076402  -0.26718298
H    3.21432869  -2.38204828   0.29914729
H    1.79142265  -1.86654391   0.33773294
O    0.63778228   1.26827127  -0.31684330
H    0.66031408   0.46266531   0.19960923
H   -0.28551732   1.38360555  -0.54144897
O    1.24384284  -0.64371940  -2.24772280
H    1.83433381  -1.19329571  -1.73243828
H    1.21263557   0.18648571  -1.77230989
O   -1.15361704  -1.53176673  -1.41676520
H   -0.33492566  -1.26596517  -1.83548445
H   -1.37493825  -2.36607615  -1.83050009
