24
Energy:   -283.14589118
O    0.90332722  -2.39110559  -0.75775936
H    0.45217578  -2.13747200   0.04745132
H    1.50039182  -1.66480475  -0.93729435
O    1.69935510   1.05303741   1.35253169
H    2.51694841   1.15940330   1.83880253
H    1.97565632   0.81293434   0.46808836
O   -0.87227648  -1.74870578  -2.71377108
H   -0.25239609  -2.11976681  -2.08584285
H   -1.36983062  -2.50144217  -3.03323886
O   -0.31462184  -0.86509961   1.26262030
H    0.41959039  -0.29552451   1.49229064
H   -1.05433187  -0.51511302   1.75917876
O   -0.70451317   2.45565234   0.88281086
H    0.17550127   2.17707924   1.13619488
H   -0.85568141   2.03351260   0.03712886
O    1.96571896   0.17310289  -1.23935546
H    1.02799256   0.34523914  -1.32462067
H    2.33220007   0.41353332  -2.09030590
O   -2.20430353   0.76745056   2.39855358
H   -3.02125495   1.16308840   2.70235108
H   -1.75452621   1.47279441   1.93334153
O   -0.72598333   0.46578456  -1.10534287
H   -0.73438536  -0.03388405  -0.28895294
H   -0.96643730  -0.17061245  -1.77870206
