24
Energy:   -286.63923943
O    0.81386491   1.85141252   0.87645959
H    0.98490991   2.71381476   1.25492733
H   -0.01162441   1.95637149   0.40340267
O   -3.09713354   0.20146849   0.81811758
H   -2.55516054  -0.54501431   0.56265616
H   -3.22976545   0.09071242   1.75959181
O    0.61160330  -0.75198063   1.81978263
H    0.66487200   0.18345495   1.62393938
H   -0.07804536  -1.07919265   1.24224573
O    2.03117926   0.46376595  -1.20161963
H    2.39396039  -0.30230186  -0.75691544
H    1.76933516   1.05117912  -0.49266598
O    2.70526519  -1.67115730   0.38008317
H    3.42698070  -1.92061061   0.95725872
H    1.99837524  -1.41992933   0.97457704
O   -0.40122421  -0.12620325  -2.15968784
H   -0.38086167  -0.12159702  -3.11666015
H    0.50037804   0.06267123  -1.89955005
O   -1.45168939   1.90528569  -0.56407139
H   -1.19558308   1.29767818  -1.25794063
H   -2.14398533   1.44725949  -0.08744765
O   -1.23307887  -1.64679673  -0.03008342
H   -1.15451601  -2.57518518  -0.24952499
H   -0.95647244  -1.18840321  -0.82355435
