24
Energy:   -298.11289530
O    2.13658224   1.51945844   0.23071905
H    1.42699543   1.35377025   0.85141690
H    2.68977478   2.16799593   0.66616018
O    0.14625841   0.99285594   1.93535678
H   -0.65514461   1.23125542   1.46936242
H    0.06530962   0.05100633   2.08568459
O   -0.09534349  -1.74601849   1.74885031
H    0.59888005  -1.80484895   1.09247808
H   -0.07982661  -2.59467910   2.19130510
O   -1.96458262   1.45074258   0.26523349
H   -2.11925525   0.52557483   0.07451680
H   -2.84018890   1.82712079   0.35403065
O    1.81715879  -1.54565096  -0.14335419
H    2.20558154  -0.68271582   0.00052967
H    1.35987985  -1.46643646  -0.98052375
O    0.07635743   1.58147691  -1.65213819
H    0.83288306   1.66284810  -1.07138045
H   -0.67862834   1.74636478  -1.08730163
O   -0.04111465  -1.07245217  -2.17171116
H    0.03434268  -0.12003830  -2.11300972
H   -0.09216202  -1.25173412  -3.11058495
O   -1.99262743  -1.15422585  -0.20461653
H   -1.42805406  -1.26084685  -0.97020175
H   -1.44822896  -1.42512260   0.53462438
