24
Energy:   -295.44951854
O    1.22820690  -1.87397920   0.79277382
H    1.47558174  -2.61533187   1.34543443
H    1.01483365  -1.17472219   1.41062765
O   -0.62665980  -0.25466654  -2.34174962
H    0.31046596  -0.23543267  -2.14769494
H   -0.96690251   0.55578213  -1.96275133
O   -1.45617925   1.91470401  -0.82549027
H   -2.19148379   2.50400240  -0.99367615
H   -1.75527265   1.35655623  -0.10768386
O   -2.02042496   0.21702570   1.18109106
H   -1.23329834   0.24461634   1.72506008
H   -1.95415761  -0.61066415   0.70488734
O    1.96073605  -0.27564156  -1.33256633
H    1.80260126  -0.91828535  -0.64102154
H    2.73662962  -0.60061097  -1.78931123
O   -1.32958142  -1.95037939  -0.31573099
H   -1.19168230  -1.47754899  -1.13649106
H   -0.44960962  -2.07715059   0.03896684
O    0.53472186   0.31980371   2.29089194
H    0.72890055   0.77076879   3.11257130
H    0.78142942   0.94536890   1.60969049
O    1.11916794   1.88874635   0.19342457
H    1.53526159   1.27616728  -0.41307752
H    0.26889884   2.07872777  -0.20303648
