24
Energy:   -293.28249861
O   -0.52963472   0.16942295   2.28119114
H    0.06705903  -0.55283703   2.08490323
H   -0.09977938   0.94218929   1.91473730
O    0.65166557   2.19553656   0.85738239
H    0.82346286   3.09064219   1.14979214
H    0.17063146   2.29942782   0.03638018
O   -0.69669050  -2.01235249  -0.85617104
H   -1.39281008  -1.46184243  -0.49757928
H   -0.24824189  -1.45074241  -1.48840504
O   -0.89348144   1.95063323  -1.37349987
H   -0.42552099   1.23087455  -1.79681100
H   -1.65938520   1.53740888  -0.97491622
O    0.62377217  -0.15083202  -2.35824591
H    1.32516727  -0.06503618  -1.71255571
H    1.06929630  -0.41667916  -3.16264967
O    2.18953051   0.12897247  -0.19906059
H    1.93537782  -0.64775022   0.29927676
H    1.80408063   0.86036214   0.28335975
O   -2.42809785  -0.21977562   0.36335179
H   -3.09375390  -0.68892797   0.86637262
H   -1.74253240  -0.01955003   1.00064416
O    0.97766595  -1.91506214   1.23498900
H    1.23880856  -2.77277011   1.57021046
H    0.39089427  -2.11133370   0.50464092
