24
Energy:   -284.01045245
O    0.73107008   0.03440676  -2.08215865
H   -0.17166059   0.29291477  -1.89646320
H    0.67046003  -0.49437747  -2.87773738
O   -0.00204222  -3.16512462  -0.06289558
H    0.66910358  -2.50165876   0.09713012
H    0.41048731  -3.99025693   0.19246283
O   -0.30934379   0.14096671   2.04810576
H   -0.43161245   1.01207637   1.67068004
H   -0.33957745   0.28294752   2.99423430
O    1.57155420  -0.98227663   0.34966413
H    1.27311035  -0.66988595  -0.50448760
H    0.94465139  -0.61410458   0.97229890
O   -2.01110973  -1.32047399   0.41540071
H   -1.53467238  -0.89247902   1.12677937
H   -1.47158073  -2.07725937   0.18645487
O   -0.48099502   2.47676461   0.63486457
H    0.40292686   2.37178205   0.28288073
H   -0.61817551   3.42373517   0.66055758
O    1.94970154   1.85347901  -0.36512096
H    1.66595920   1.43535403  -1.17807461
H    2.34588395   1.14573657   0.14318209
O   -1.69918632   0.80667821  -1.26540931
H   -1.45885011   1.46757807  -0.61603904
H   -1.96939506   0.04843366  -0.74744764
