24
Energy:   -281.87682877
O    0.04734636   0.66379482   2.07338956
H   -0.18482461   1.29126005   1.38883432
H    0.94132934   0.39610353   1.86039270
O    1.78755828   1.33289583  -1.17535853
H    2.27171433   1.10849944  -0.38070702
H    0.99970506   1.77532581  -0.85948695
O    1.40392447  -1.39363539  -1.06124302
H    0.46299966  -1.56417475  -1.01871455
H    1.47044592  -0.49224802  -1.37637403
O   -1.60228105  -1.45032621   1.80266559
H   -1.01753939  -0.70877924   1.95892540
H   -2.11904395  -1.52173039   2.60521739
O   -0.57348535   2.27174385  -0.09563813
H   -1.12062156   1.75355114  -0.68585006
H   -0.98851299   3.13412534  -0.07884313
O   -1.92981506   0.70192495  -1.82738192
H   -1.80500718  -0.19240050  -1.50983378
H   -1.71071470   0.65886471  -2.75817335
O   -1.32366661  -1.79676476  -0.86287983
H   -1.61729842  -2.68535757  -1.06391472
H   -1.45500022  -1.70842516   0.08114318
O    2.49221807  -0.20108141   1.11212020
H    3.25759035  -0.66118412   1.45671071
H    2.14817843  -0.78217907   0.43374413
