24
Energy:   -281.98455499
O   -1.45046107   2.03701617  -1.22935043
H   -1.86648572   2.25921662  -2.06228638
H   -1.24072411   1.10627799  -1.30660779
O    1.45731639  -1.88518724   1.13296844
H    0.64332282  -1.54243747   1.50197918
H    1.17398349  -2.52301678   0.47788998
O   -1.05882346  -0.75469952   1.58190642
H   -1.69729779  -1.12139802   2.19355548
H   -1.11530410   0.19156204   1.71468764
O   -1.26132391   1.92433730   1.63875054
H   -0.37606707   2.24225124   1.46131633
H   -1.74558201   2.09994212   0.83197369
O   -0.61183763  -0.55603266  -1.13359858
H   -0.87572259  -0.67720163  -0.22150502
H    0.30918274  -0.29993108  -1.08496406
O    1.99917714   0.11690577  -0.58135133
H    2.86997675   0.00862924  -0.96373344
H    1.94795694  -0.55926726   0.09422130
O    0.29027056  -3.14833974  -1.04029897
H   -0.07423666  -3.75006437  -1.68937046
H   -0.12189770  -2.30669053  -1.23517273
O    0.96262554   2.58769893   0.15002805
H    1.44453914   1.78828747  -0.06194470
H    0.21888108   2.58647400  -0.45252860
