24
Energy:   -286.02836833
O   -0.72384240  -1.94550830  -1.39920149
H   -1.47599417  -2.01116815  -0.81082376
H    0.03685628  -1.95528263  -0.81827651
O    2.12893096   2.27970935   0.99100188
H    2.15595458   1.81402401   0.15515576
H    2.42250880   3.16632686   0.78135147
O    1.95759505   0.74295212  -1.22071050
H    1.95154479  -0.11966513  -0.80587714
H    1.08388139   0.83234462  -1.60132222
O    0.47154759   0.42328098   2.04953898
H    0.36875559   0.56718268   2.99026102
H    1.05000240   1.12906531   1.76059199
O   -0.69389772   0.67192770  -1.99210489
H   -1.07140557   0.82534862  -2.85823519
H   -0.72757634  -0.27814645  -1.88049529
O   -1.81068182   0.86183772   0.54727330
H   -1.46242597   0.95881256  -0.33903680
H   -1.03539887   0.76875395   1.10090098
O    1.40908031  -1.51496966   0.32401525
H    1.93561735  -2.15205512   0.80683271
H    1.06009733  -0.93191192   0.99817132
O   -2.77352883  -1.66029680   0.39642987
H   -3.72792453  -1.64703695   0.46843599
H   -2.51069501  -0.74849420   0.52199356
