24
Energy:   -286.46560767
O    1.72775045   1.21182303   0.49399494
H    1.11202000   0.84047249   1.12582296
H    2.35762551   1.69538921   1.02846010
O   -1.23193079  -1.52843470   0.26333692
H   -1.20518417  -1.11397763  -0.59906774
H   -0.53498511  -2.18399987   0.23626503
O    1.05314956  -3.01844074   0.10412633
H    1.42850116  -3.81157702  -0.27833657
H    1.43250535  -2.30310633  -0.40638098
O   -0.39553667   2.23600378  -0.97896095
H    0.43687290   2.05140356  -0.54393346
H   -1.02038812   2.35024543  -0.26290135
O   -0.24267016   0.15439636   2.09436707
H   -0.60799653  -0.46995323   1.46750497
H   -0.15858507  -0.34339358   2.90761164
O    1.81251648  -0.86814290  -1.34810289
H    0.97918125  -0.66729717  -1.77406677
H    1.95364726  -0.14085400  -0.74199663
O   -0.76366908  -0.16783721  -2.11667026
H   -0.68728873   0.72469060  -1.77933958
H   -1.16138061  -0.06443970  -2.98117379
O   -1.98528398   2.12359645   1.25325493
H   -2.86259427   1.74275235   1.29219448
H   -1.42225696   1.47261367   1.67212703
