24
Energy:   -294.44650368
O    2.06467919   1.40211989   0.75373899
H    1.37478576   1.19789577   1.38506411
H    2.76004842   1.79916189   1.27819216
O   -0.09926927   0.74768929   2.24019958
H   -0.78030136   1.13031248   1.68700284
H   -0.15454953  -0.19313271   2.07277826
O   -0.25005176  -1.90057367   1.38823132
H    0.48434424  -1.99357738   0.78139965
H   -0.30854201  -2.74972034   1.82613618
O   -1.92332803   1.56848098   0.31413435
H   -2.01942435   0.66441886   0.01468647
H   -2.81719822   1.91012461   0.33666355
O    1.77086593  -1.85334568  -0.45983697
H    2.30852129  -1.11060095  -0.18508466
H    1.23391898  -1.50979733  -1.17390584
O    0.30943706   1.76258134  -1.32286197
H    1.01996026   1.75624860  -0.68149738
H   -0.48304882   1.89183276  -0.80181300
O    0.10886094  -0.71344071  -2.35988373
H    0.21780212   0.19439957  -2.07670586
H   -0.04750907  -0.65373755  -3.30233574
O   -1.96094734  -0.98761539  -0.56477664
H   -1.33589807  -0.95689335  -1.28907037
H   -1.48421232  -1.41697180   0.14558147
