24
Energy:   -305.46702526
O   -0.16472196   2.25836656  -0.37539837
H    0.13874371   1.78543328  -1.15030130
H    0.48104976   2.05150777   0.30019039
O    0.22244239  -2.41375710   0.39027916
H    0.97606598  -1.89093596   0.11652491
H    0.56499496  -3.30375563   0.47269400
O   -1.41866594  -1.10826102  -1.42387664
H   -1.88785115  -0.51495512  -0.83728888
H   -0.95496886  -1.70727378  -0.83872659
O    1.49397658   1.16702317   1.56016504
H    1.91956977   1.49907574   2.35063539
H    0.78490148   0.61184403   1.88454210
O   -0.56858949  -0.44749676   2.17824155
H   -1.29111138  -0.05110961   1.69134198
H   -0.35822901  -1.24342820   1.68990411
O   -2.28890038   0.79599427   0.39415059
H   -3.07025648   1.34246764   0.47830129
H   -1.60045674   1.40212115   0.12049493
O    2.15197826  -0.70260999  -0.37896577
H    2.10733840  -0.02705064   0.29768679
H    1.76503078  -0.29312583  -1.15280440
O    0.57248222   0.45073905  -2.34459450
H    0.58568672   0.46221706  -3.30163460
H   -0.16051054  -0.12302908  -2.12156179
