24
Energy:   -294.97921897
O    1.96755437   1.61080647   0.33800314
H    1.37802714   1.35537945   1.04754280
H    2.63938521   2.14310629   0.76406894
O    0.06892347   0.75096102   2.08740506
H   -0.73000888   0.95287503   1.60040436
H    0.13947493  -0.20281826   2.04791541
O    0.42782949  -1.98510929   1.63021963
H    0.97665069  -1.70638014   0.89718675
H    1.04043419  -2.37443984   2.25421405
O   -2.12385427   1.16085875   0.43934749
H   -2.22005920   0.24303292   0.18523688
H   -2.97850763   1.40176265   0.79678949
O    1.93250306  -1.06686444  -0.44435911
H    1.33974966  -1.03747204  -1.19536600
H    2.13148967  -0.14898341  -0.25961448
O   -0.18045291   1.75243080  -1.47610720
H    0.59564857   1.86913102  -0.92812964
H   -0.90883445   1.71669398  -0.85609506
O   -0.12825442  -0.83090374  -2.28375939
H   -0.14978263   0.12112507  -2.18675668
H   -0.00161612  -0.97376065  -3.22172873
O   -2.06974347  -1.40864003  -0.37904498
H   -1.42111614  -1.34918341  -1.08045737
H   -1.66783376  -1.98461981   0.27129934
