24
Energy:   -283.81686829
O   -1.11429598  -0.18737911   1.73975804
H   -0.60987320  -0.77327426   1.17538549
H   -1.14612957   0.63997030   1.25943376
O   -2.15669811  -1.52944940  -0.55817265
H   -2.34566841  -1.12318098   0.28768080
H   -1.37427685  -2.05800576  -0.40108352
O    1.53139336  -0.11091278   2.41984583
H    0.57811796  -0.02589770   2.43628645
H    1.80171815   0.04312823   3.32506831
O    1.77977865   1.63740444   0.26407572
H    1.84895741   1.08190412   1.04051989
H    1.80596973   1.02573506  -0.47172755
O    0.57721280  -1.81137058   0.30525712
H    1.18660801  -1.61191941   1.01595295
H    0.93697669  -1.35406682  -0.45479226
O   -1.27473685   0.44415722  -2.18071011
H   -1.66769659  -0.26836727  -1.67660363
H   -1.93896549   0.67289220  -2.83087354
O   -0.92711101   1.97135845   0.12577199
H   -1.09052099   1.60358155  -0.74271473
H    0.02498712   2.05697237   0.17487648
O    1.36440846  -0.20269369  -1.78223550
H    0.48379712   0.06091757  -2.04918984
H    1.84620767  -0.29678523  -2.60397035
