24
Energy:   -287.78591664
O    0.69427299   1.52508696   1.15357255
H    0.56922975   0.78755355   1.75076641
H   -0.18708372   1.73704293   0.84613662
O   -1.83776483   1.69377718  -0.00503247
H   -2.64514191   2.04991530   0.36583102
H   -1.88706890   0.75411609   0.17057502
O   -1.73507393  -0.92430495   0.60006351
H   -1.24118990  -1.36267974  -0.09285636
H   -1.16797350  -0.97736799   1.36935751
O    1.39159127   0.46098937  -1.25322766
H    0.82591628   0.97461393  -1.82979809
H    1.29058451   0.86826170  -0.39290288
O    0.28557638  -0.86204041   2.50436074
H    0.93324446  -1.31153262   1.96148445
H    0.44964239  -1.18476700   3.39045426
O   -0.61324403   1.85200281  -2.48015092
H   -0.63912031   2.76606730  -2.76307915
H   -1.12659178   1.83617810  -1.67240374
O    0.07583354  -1.88526124  -1.25424953
H   -0.03825031  -2.19027514  -2.15435132
H    0.52457971  -1.04422151  -1.34091500
O    1.99530542  -1.97626374   0.73797244
H    1.36240219  -2.18863513   0.05199595
H    2.58026123  -1.33490495   0.33458992
