24
Energy:   -294.24563947
O    1.69132555   1.68403005   0.88134884
H    0.93282831   1.41712259   1.40065049
H    2.15338045   2.31202583   1.43664914
O   -0.52344735   0.73788486   2.08530941
H   -1.18655721   0.92248661   1.42014826
H   -0.37695270  -0.20596262   2.02267469
O   -0.06178292  -1.90239600   1.36084897
H   -0.59687926  -1.90852711   0.56720789
H   -0.17004563  -2.77886322   1.73005927
O   -2.12239959   0.96974813  -0.17270944
H   -2.01848096   0.07294074  -0.49078060
H   -3.02466426   1.19997279  -0.39440049
O    2.23819042  -0.93415284   0.12371426
H    2.22443070  -0.01531418   0.39162848
H    1.55194057  -1.34724388   0.64778371
O    0.16057840   1.96168296  -1.42249103
H    0.77317982   2.00748161  -0.68842439
H   -0.68556951   1.77146015  -1.01742208
O    0.73177400  -0.61326541  -2.13184509
H    1.40662606  -0.79544246  -1.47791996
H    0.59702155   0.33300713  -2.08044569
O   -1.46968556  -1.58400823  -0.99183193
H   -0.69320480  -1.27672728  -1.45968650
H   -1.88357154  -2.20241967  -1.59390961
