91
Energy:   -557.78424301
C    0.82930373   2.16498240  -2.95100174
H    0.69870058   1.52711942  -3.80010351
H    0.61176282   3.17555749  -3.22724987
H    0.16625426   1.85832527  -2.16919237
C    2.28466911   2.06991245  -2.45655931
N    3.36825479   1.99912854  -2.08842445
C    3.01815175   1.33478566   1.35444334
H    2.05750763   1.40033012   0.88778822
H    3.77442823   1.24525819   0.60282521
H    3.19402336   2.21681466   1.93409246
C    3.05916478   0.09983864   2.27358630
N    3.08970085  -0.81963555   2.95793002
C   -1.59819452  -0.64174278  -3.31550499
H   -1.23497712   0.02078571  -4.07315220
H   -1.21107106  -1.62463061  -3.48569908
H   -1.27937991  -0.29420582  -2.35504968
C   -3.13698191  -0.68085830  -3.36244487
N   -4.28267906  -0.70998158  -3.39739374
C    0.35789872   1.75941493   4.15144746
H    1.05163042   1.05530596   4.56116330
H   -0.05347122   1.36831912   3.24440946
H   -0.42988085   1.93414535   4.85413638
C    1.08532385   3.08421227   3.85587232
N    1.62692493   4.07058412   3.63580319
C   -2.70677637   4.08118787   1.71941976
H   -3.73422898   4.18684065   1.43999391
H   -2.28361277   3.24004400   1.21117902
H   -2.17093829   4.96728319   1.44995411
C   -2.60825803   3.86442999   3.24090264
N   -2.53490665   3.70304389   4.37371581
C   -3.07449513   0.32861856   3.64004970
H   -3.99578172   0.86179873   3.74890787
H   -2.46273204   0.81863075   2.91167269
H   -2.56223610   0.30624316   4.57919246
C   -3.36628325  -1.11181228   3.18002938
N   -3.58353276  -2.18427851   2.83752334
C   -3.29506325   2.94485284  -1.92876841
H   -3.37338915   3.97908633  -1.66584957
H   -2.68099122   2.44024405  -1.21239938
H   -4.26997239   2.50395222  -1.93637753
C   -2.66299569   2.81715626  -3.32726195
N   -2.19239266   2.72208036  -4.36850396
C   -2.02177458  -2.96784555  -0.24164430
H   -2.34335288  -3.07087588  -1.25696313
H   -1.88177646  -1.93147844  -0.01527547
H   -2.76376026  -3.37838711   0.41089838
C   -0.69252774  -3.72028117  -0.04531938
N    0.29715695  -4.28050370   0.10085344
C    0.94610400   4.23588610   0.31933936
H    1.24140272   4.98183073   1.02734038
H    1.80455871   3.90015820  -0.22402185
H    0.50489391   3.40898691   0.83554714
C   -0.07942755   4.83559840  -0.66057400
N   -0.84298242   5.28211146  -1.39016403
C    0.04349684  -2.17483949   2.99366231
H    0.03281767  -1.32345681   2.34563941
H   -0.74341680  -2.84449049   2.71575309
H    0.98502145  -2.67603176   2.90859281
C   -0.16365770  -1.71505420   4.44875148
N   -0.31789367  -1.37272316   5.53213151
C    1.56917431  -4.99854848  -3.17916011
H    2.20088278  -4.24217207  -3.59598061
H    1.73435964  -5.92333876  -3.69138646
H    1.79629378  -5.12050824  -2.14067966
C    0.09535808  -4.58062676  -3.33666298
N   -1.00196510  -4.26946505  -3.45393102
C   -4.61470369  -0.14775941  -0.04143094
H   -4.71690725  -1.02189234   0.56712984
H   -3.58939556  -0.02671911  -0.32248534
H   -5.21548324  -0.25297889  -0.92057364
C   -5.07861158   1.08757062   0.75251438
N   -5.42401210   2.00732998   1.34364276
C    5.29312500  -0.93824125  -2.87298798
H    4.66736777  -0.15452327  -3.24596816
H    4.90666707  -1.88444438  -3.18960918
H    6.28571041  -0.81330351  -3.25254543
C    5.32137720  -0.88420093  -1.33419577
N    5.34241226  -0.84396545  -0.18849503
C    3.79863320  -3.74235114   1.22004992
H    4.35509749  -2.89088842   1.55210252
H    4.06794319  -4.59547659   1.80703219
H    2.75194766  -3.54952998   1.33036066
C    4.11658087  -4.01747684  -0.26144093
N    4.35330736  -4.22232043  -1.36447821
C    1.67235411  -1.32439172  -1.13121611
H    0.63479762  -1.27158281  -0.87511472
H    2.17633133  -0.45726148  -0.75840088
H    2.10294899  -2.20190440  -0.69594764
C    1.82057491  -1.38545423  -2.66284987
N    1.93093204  -1.43091804  -3.80322082
Cl  -0.84645846   0.82557161   0.41628030
