91
Energy:   -557.42254989
C    2.21550970   2.74666587  -1.79359337
H    2.94536343   2.18845139  -2.34187278
H    1.92574006   3.60729781  -2.35949559
H    1.35787721   2.13257849  -1.61397631
C    2.81646834   3.19523838  -0.44851664
N    3.26390936   3.52922100   0.55295413
C    1.41269313   2.52313958   3.27590277
H    1.08124485   3.54050085   3.27162939
H    1.00216307   2.01072176   2.43104057
H    2.48113241   2.49589318   3.22496919
C    0.94283258   1.83561169   4.57133184
N    0.59300005   1.32371593   5.53583766
C    0.84037293  -0.81788247  -2.83885186
H    1.67603698  -0.42560983  -3.37985828
H    0.33038365  -0.01914132  -2.34203942
H    0.17005250  -1.30067723  -3.51890982
C    1.33640595  -1.83719027  -1.79646860
N    1.70572508  -2.59611125  -1.02036688
C   -2.56226682   1.73959449   3.67365869
H   -3.62754744   1.63921687   3.67496533
H   -2.16396814   1.32629712   4.57667726
H   -2.15584842   1.21742407   2.83278936
C   -2.18724942   3.23044020   3.58232950
N   -1.90803193   4.34044260   3.51433076
C   -3.61033227   3.76352120   0.19267439
H   -2.99815372   4.46109408   0.72514946
H   -4.06859812   4.25444679  -0.64032235
H   -3.00541054   2.95403708  -0.15904175
C   -4.70248853   3.21802291   1.13141094
N   -5.51564852   2.81187463   1.83034297
C   -4.37078106  -0.30484389   0.68527706
H   -5.31446896   0.19140124   0.77524424
H   -4.41391054  -1.01025359  -0.11811332
H   -3.60605864   0.41650186   0.48588044
C   -4.05112978  -1.04200323   1.99905754
N   -3.81313488  -1.59085187   2.97722683
C   -1.38929880   3.56613980  -2.83599239
H   -1.01372925   4.54562446  -3.04684187
H   -1.09118421   3.27431091  -1.85066875
H   -2.45746916   3.57269879  -2.89818696
C   -0.82153253   2.56698773  -3.86114438
N   -0.39880473   1.82307360  -4.62441663
C   -1.40597046  -2.78566076   0.41975070
H   -1.51137022  -1.72541381   0.51807399
H   -0.39355802  -3.06406294   0.62569332
H   -2.05835854  -3.27472025   1.11265019
C   -1.77244021  -3.20705345  -1.01542459
N   -2.04529359  -3.52079946  -2.08397784
C    0.08322236   5.06052459   0.89343185
H   -0.22939285   4.04400405   0.77571223
H   -0.68463676   5.61436420   1.39198289
H    0.98086955   5.09256139   1.47489745
C    0.34635723   5.68033132  -0.49155901
N    0.54227311   6.14180559  -1.52274765
C   -0.39121472  -1.34658201   3.48932958
H   -1.02876867  -2.19234595   3.33731477
H   -0.47997430  -0.67899661   2.65785465
H   -0.67936791  -0.83935822   4.38631947
C    1.06886159  -1.82016205   3.61382493
N    2.15595478  -2.17276392   3.70651738
C    0.85744381  -5.55012872  -2.39621209
H    0.41890454  -6.36974666  -2.92612709
H    0.88068463  -4.68772022  -3.02915012
H    0.27533517  -5.33690075  -1.52409831
C    2.29296700  -5.91860465  -1.97776417
N    3.36177927  -6.19295173  -1.66621068
C   -2.84171377  -0.23829404  -2.80867365
H   -3.38380200  -1.15935107  -2.86058182
H   -2.16126301  -0.27093112  -1.98355507
H   -2.29441852  -0.09487836  -3.71685807
C   -3.82855016   0.92790329  -2.61441162
N   -4.56329472   1.79619020  -2.46977470
C    4.86084304  -3.21434470  -2.52840038
H    5.45000100  -4.10747646  -2.53882829
H    4.36265923  -3.12668362  -1.58551783
H    5.49620028  -2.36620304  -2.67630572
C    3.81546694  -3.27575912  -3.65756693
N    3.03713692  -3.32148495  -4.49828274
C    3.06811734  -4.48822243   1.47903273
H    3.05088365  -3.46752010   1.15845523
H    3.73204635  -5.04740192   0.85340052
H    3.40670715  -4.53799141   2.49282713
C    1.65004077  -5.08084126   1.38176114
N    0.59421830  -5.52207292   1.30933801
C    3.02739726  -0.10214215   0.98588200
H    1.98411008  -0.10351396   0.74828957
H    3.26003045   0.76658993   1.56561078
H    3.26631193  -0.98061319   1.54811638
C    3.85027595  -0.08615089  -0.31573812
N    4.46294653  -0.07424468  -1.28485347
Cl  -0.73652263   1.12819759   0.21455068
