91
Energy:   -558.33423902
C    1.99182430   3.60818620  -1.69297906
H    1.65496447   4.57684904  -1.99813138
H    1.16779232   2.92566800  -1.69924678
H    2.74575424   3.26330203  -2.36939880
C    2.57754623   3.69272736  -0.27122570
N    3.01364284   3.75567209   0.78733430
C    1.08782881   2.25084698   3.28333405
H    2.15418702   2.19978966   3.21140703
H    0.79289814   3.25556149   3.50347890
H    0.65272130   1.94685000   2.35426657
C    0.60377851   1.31582028   4.40717584
N    0.24338107   0.61965039   5.24392714
C    1.48836689  -0.04918189  -2.94747362
H    0.88085027   0.78091298  -2.65291247
H    1.26245355  -0.89336372  -2.33004403
H    1.28900067  -0.29187226  -3.97033899
C    2.97482396   0.32038620  -2.78789671
N    4.08155882   0.59554644  -2.66908445
C   -2.77478031   0.98808664   3.17370154
H   -3.81529323   0.81973083   2.98961086
H   -2.46705589   0.42023344   4.02678272
H   -2.20753391   0.68361211   2.31905198
C   -2.53652302   2.48589568   3.44091226
N   -2.35912964   3.60108258   3.63986279
C   -3.83464975   3.72030830   0.10906766
H   -3.76868568   4.75566967   0.37093738
H   -4.09031322   3.62978955  -0.92598869
H   -2.89161906   3.24681251   0.28625105
C   -4.91888559   3.04191999   0.96686830
N   -5.72614845   2.53682906   1.60553987
C   -4.27660565  -0.36242417  -0.07882973
H   -4.35125455  -1.40863642  -0.29041340
H   -4.96260021  -0.10649944   0.70143503
H   -3.27940398  -0.13189779   0.23317267
C   -4.61707327   0.44321486  -1.34635785
N   -4.87056689   1.04304974  -2.29009016
C   -1.87848038   3.20804011  -3.04903832
H   -2.42103632   4.03806930  -3.45101441
H   -1.38838639   3.50605560  -2.14576996
H   -2.55602317   2.40681665  -2.83957277
C   -0.82781739   2.73766104  -4.07200010
N   -0.04555103   2.38744244  -4.83364165
C   -0.60504459  -2.10074939   0.89409515
H   -0.89635593  -1.85955208  -0.10683529
H   -0.03173897  -3.00419224   0.89081393
H   -0.01350236  -1.30440492   1.29510934
C   -1.86228639  -2.29375191   1.76225013
N   -2.79836006  -2.43745106   2.40863098
C   -0.41335681   4.96998247   1.24446667
H   -0.59097882   3.91592515   1.19636484
H   -1.08406301   5.41283257   1.95082074
H    0.59617273   5.14792830   1.55119858
C   -0.64536666   5.59355607  -0.14439164
N   -0.81810854   6.05783497  -1.17845977
C    0.15870956  -2.70119074   4.57458647
H    0.24510305  -2.89670663   5.62301858
H   -0.17762606  -3.58477043   4.07352322
H   -0.54538749  -1.91127455   4.41590803
C    1.53181525  -2.28498786   4.01516183
N    2.55415485  -1.97510590   3.59864476
C    0.45133106  -4.74308699  -1.55211651
H    0.67196238  -5.76846439  -1.76383139
H   -0.56137988  -4.65792305  -1.21735876
H    1.11059656  -4.38673416  -0.78838833
C    0.64248442  -3.90276265  -2.82840621
N    0.78480679  -3.27710299  -3.77866191
C   -1.95078372  -0.75812935  -3.38199305
H   -1.56485613  -0.03529446  -2.69390163
H   -2.81165518  -0.35717856  -3.87498177
H   -1.20159584  -0.99457595  -4.10842930
C   -2.34549077  -2.03523656  -2.61726859
N   -2.63936811  -2.98610094  -2.04789647
C    4.34685604  -2.99768086  -3.10238369
H    5.15573679  -3.04430242  -3.80126748
H    4.59184763  -2.31179141  -2.31852536
H    3.46152006  -2.66555599  -3.60315546
C    4.10428925  -4.39576276  -2.50394543
N    3.92368724  -5.43669828  -2.05838095
C    3.65714479  -4.77709850   1.63248229
H    3.84206113  -4.81935900   0.57942950
H    4.23675122  -5.52848574   2.12682297
H    3.93220477  -3.81228478   2.00447097
C    2.16092010  -5.02345002   1.90122493
N    1.04691281  -5.20686993   2.10131604
C    2.92596980   0.19448929   0.85695011
H    3.72773880   0.72270912   0.38466793
H    3.12938143   0.09856366   1.90304813
H    2.01281310   0.73493701   0.71925406
C    2.79352389  -1.20553441   0.22926251
N    2.69491188  -2.24791569  -0.23807944
Cl  -0.73205851   1.31654544  -0.16753317
