91
Energy:   -561.25890717
C    2.05116586   3.23601804  -1.54617410
H    2.84709437   2.94330663  -2.19864481
H    1.58002123   4.11630013  -1.93091463
H    1.33275611   2.44557592  -1.48302527
C    2.61769389   3.52800179  -0.14424989
N    3.03949976   3.74539696   0.89954640
C    1.30797596   2.11660709   3.35792725
H    1.60214106   3.13942776   3.46840326
H    0.70916548   2.01080137   2.47751244
H    2.17968012   1.50202526   3.27236955
C    0.49183377   1.68132870   4.58920490
N   -0.11582119   1.35724415   5.50594708
C    1.01199993  -0.58218574  -3.13517944
H    0.38919539  -0.05468445  -2.44325670
H    0.98686163  -1.62831230  -2.91182687
H    0.65476067  -0.42138211  -4.13088090
C    2.45871329  -0.06718913  -3.01942571
N    3.53585716   0.31624925  -2.93324180
C   -2.96026971   1.26704122   3.44217066
H   -3.97459843   0.96626422   3.28226247
H   -2.60016584   0.83702208   4.35338295
H   -2.35567609   0.93097193   2.62582326
C   -2.88883773   2.80253264   3.53578454
N   -2.83565338   3.94577580   3.60548433
C   -3.92678330   3.47902817   0.07059184
H   -3.54036798   4.22854978   0.72922736
H   -4.33863284   3.94657828  -0.79927938
H   -3.13712681   2.81798486  -0.21986206
C   -5.02669402   2.67876148   0.79265113
N   -5.84562756   2.08292656   1.33025710
C   -4.28177186  -0.80666799   0.17144250
H   -3.59001262  -0.00533713   0.01575629
H   -5.27526485  -0.41377240   0.23063557
H   -4.21880377  -1.49582875  -0.64464056
C   -3.93812718  -1.53358633   1.48487238
N   -3.68226810  -2.07481008   2.46278064
C   -1.46105229   3.74041581  -2.77523941
H   -1.08663305   4.73768973  -2.87601216
H   -1.22373470   3.36708774  -1.80096757
H   -2.52286764   3.74304469  -2.90730127
C   -0.81327450   2.83861498  -3.84235664
N   -0.33097449   2.16718327  -4.63687393
C   -0.74571007  -2.51474382  -0.16357111
H   -1.33003646  -1.97556685   0.55249527
H   -0.02317697  -1.85809776  -0.60136210
H   -0.24319734  -3.32436234   0.32315047
C   -1.66786878  -3.07059059  -1.26459686
N   -2.35445785  -3.48444378  -2.08436057
C   -0.39681705   4.82905857   1.44315237
H   -0.78280052   3.85696218   1.21744117
H   -1.08086121   5.34431030   2.08463373
H    0.54877752   4.73211726   1.93442865
C   -0.21772615   5.62609781   0.13768123
N   -0.08438484   6.21952975  -0.83430138
C   -0.35777896  -1.55654341   3.28572400
H   -0.67372652  -2.53881694   3.00249964
H   -0.63587616  -0.85883739   2.52364307
H   -0.82656405  -1.28313018   4.20788713
C    1.17190426  -1.54048958   3.46295698
N    2.31082295  -1.52853677   3.59491499
C    1.25715412  -5.33202487  -1.56879115
H    0.94067901  -5.88516804  -2.42831213
H    1.22568302  -4.28498753  -1.78701455
H    0.60503765  -5.54496885  -0.74763461
C    2.69649937  -5.73638387  -1.19949579
N    3.76815733  -6.03744753  -0.92453862
C   -2.72151351  -0.14719708  -3.13550675
H   -3.22204895  -1.08707040  -3.24040005
H   -2.09139206  -0.17319283  -2.27111664
H   -2.12655421   0.03905447  -4.00512327
C   -3.76431899   0.97487134  -2.97701642
N   -4.54073507   1.81030228  -2.85901317
C    5.00105088  -3.00401330  -2.62120673
H    4.93435852  -3.52816006  -1.69076464
H    5.06627527  -1.95247938  -2.43433436
H    5.87294106  -3.32691292  -3.15077490
C    3.74829132  -3.29832305  -3.46712355
N    2.81555488  -3.51745003  -4.09694708
C    3.56875020  -4.46619594   2.33097815
H    3.75616793  -3.43262316   2.12725759
H    4.13081757  -5.07142396   1.65077347
H    3.86281958  -4.69087288   3.33494158
C    2.06680916  -4.75932590   2.15821259
N    0.94854578  -4.97757448   2.02958078
C    2.98631807   0.09600952   0.63527319
H    3.46075829   0.07216770   1.59404231
H    2.02806140   0.56391824   0.72304944
H    3.59301660   0.65128673  -0.04918514
C    2.80945941  -1.34230154   0.11413758
N    2.67778011  -2.41318950  -0.27387157
Cl  -0.79032132   1.09576049   0.08282698
