91
Energy:   -559.85935224
C    2.33192663   3.18555015  -1.28366017
H    3.11179172   2.85713136  -1.93852788
H    1.95684093   4.12922636  -1.62083226
H    1.53973557   2.46629191  -1.28358396
C    2.88951083   3.33523386   0.14402840
N    3.30465761   3.44668018   1.20700743
C    1.40596451   1.79695870   3.53905637
H    1.77178731   2.78582136   3.72133225
H    0.81898892   1.79307792   2.64443707
H    2.23198126   1.12617818   3.42658901
C    0.53541100   1.34474282   4.72616941
N   -0.11275565   1.00804754   5.61002904
C    1.14403637  -0.32791256  -3.07877061
H    0.57943169   0.33755466  -2.45967845
H    0.96251720  -1.33777523  -2.77524586
H    0.84760226  -0.20346299  -4.09932841
C    2.64454317  -0.01135437  -2.93780870
N    3.76173869   0.22433760  -2.83285616
C   -2.91160725   1.26902783   3.49185870
H   -3.94237042   1.05263099   3.30317937
H   -2.59657602   0.75916509   4.37825274
H   -2.32063112   0.94077723   2.66246262
C   -2.73205184   2.78673692   3.68138176
N   -2.59836467   3.91674032   3.82249029
C   -3.66555999   3.68803062   0.22631031
H   -3.18334449   4.33390245   0.93002756
H   -4.03325371   4.26671956  -0.59516368
H   -2.96379468   2.96456173  -0.13287950
C   -4.84040528   2.96683158   0.91275806
N   -5.71513100   2.42986612   1.42384960
C   -4.32600440  -0.49656018   0.07743486
H   -3.55936203   0.24222827  -0.02910753
H   -5.27858001  -0.01441003   0.14835753
H   -4.31702309  -1.14516620  -0.77352264
C   -4.07132545  -1.32029272   1.35344557
N   -3.88170540  -1.93359904   2.30349355
C   -1.15444336   3.99633816  -2.53475528
H   -0.74662487   4.98509017  -2.56563742
H   -0.94441388   3.55344103  -1.58363550
H   -2.21344590   4.04260102  -2.68060611
C   -0.51950943   3.14412971  -3.64929540
N   -0.04677226   2.50962178  -4.47912118
C   -0.94605293  -2.42738869  -0.30123700
H   -0.18620562  -1.83150586  -0.76216638
H   -0.49378926  -3.25991140   0.19601808
H   -1.48134797  -1.83453609   0.41072094
C   -1.92016366  -2.94006966  -1.37820798
N   -2.64543338  -3.32178394  -2.18006184
C   -0.05793275   4.74564426   1.76592837
H   -0.51949962   3.82232862   1.48424693
H   -0.70247134   5.27724102   2.43441469
H    0.87348736   4.54482804   2.25278412
C    0.19348404   5.59845337   0.50850790
N    0.38067526   6.23340851  -0.42769879
C   -0.53131755  -1.73119341   3.20341288
H   -0.98679606  -1.47759679   4.13782621
H   -0.92485207  -2.66366077   2.85623239
H   -0.74076140  -0.96614504   2.48526710
C    0.99207181  -1.85522499   3.39182999
N    2.12630444  -1.94757214   3.53211509
C    0.76838108  -5.32675697  -1.89483905
H    1.34164733  -6.22659185  -1.97585248
H   -0.27391101  -5.56813027  -1.87855318
H    1.03058199  -4.81693795  -0.99138217
C    1.06605489  -4.41802695  -3.10198446
N    1.28768658  -3.74143614  -4.00075909
C   -2.52499356   0.13627576  -3.16159550
H   -3.06373189  -0.76915579  -3.34829017
H   -1.92348926   0.01901335  -2.28447453
H   -1.89587851   0.35605609  -3.99873943
C   -3.52078681   1.29187325  -2.95043144
N   -4.26220014   2.15226811  -2.79321020
C    4.67958444  -3.14683756  -2.86950773
H    5.55850396  -3.17270609  -3.47920558
H    4.79925543  -2.41066261  -2.10228912
H    3.83307071  -2.89716085  -3.47446652
C    4.46070716  -4.52849807  -2.22553028
N    4.29774308  -5.55720713  -1.74605980
C    3.21259275  -4.89405076   1.84281005
H    3.58145617  -4.96481486   0.84089568
H    3.63297306  -5.68058380   2.43403359
H    3.48964602  -3.94799946   2.25889600
C    1.67791942  -5.02179065   1.83504509
N    0.53528537  -5.11689881   1.82926372
C    2.98823392  -0.16060054   0.72945375
H    3.43758748  -0.31080408   1.68883921
H    2.07939379   0.39239663   0.84392134
H    3.66129386   0.38534484   0.10189255
C    2.68084739  -1.52607794   0.08712595
N    2.45198414  -2.54273792  -0.39111629
Cl  -0.68024763   1.15318410   0.16624262
