91
Energy:   -559.85288788
C    1.36337086   2.02484193  -2.72701312
H    1.44312317   1.33799844  -3.54358264
H    1.25710679   3.01954721  -3.10670830
H    0.50814374   1.77617146  -2.13401341
C    2.63241798   1.93965050  -1.85876095
N    3.57728125   1.87622161  -1.21230774
C    2.73345641   0.92307369   1.99403917
H    1.87036634   1.06766502   1.37835332
H    3.61103829   0.91562553   1.38191691
H    2.80155762   1.71941901   2.70544302
C    2.61458398  -0.42045432   2.73727658
N    2.52607805  -1.42077199   3.29065061
C   -1.12103712  -0.50419800  -3.69534744
H   -0.89001263   0.30424791  -4.35712012
H   -0.47230544  -1.32990515  -3.90090523
H   -0.98414941  -0.18653113  -2.68280183
C   -2.58424691  -0.93655830  -3.90434906
N   -3.67367311  -1.25847020  -4.05996027
C   -0.72201032   0.38167195   4.05875036
H    0.00481265  -0.38849021   4.21197829
H   -1.20109389   0.23691222   3.11301115
H   -1.45335545   0.34220090   4.83879871
C   -0.02597834   1.75528679   4.07668769
N    0.49224911   2.77800548   4.09004285
C   -2.63201272   3.62248252   2.39874661
H   -2.15633860   2.82478856   1.86740995
H   -3.69338648   3.53933703   2.29164082
H   -2.37255659   3.56522702   3.43523271
C   -2.16246508   4.97264040   1.82586031
N   -1.81286552   5.97789432   1.39932042
C   -4.38214040   0.13817824   2.26687089
H   -5.23046813   0.56361189   1.77265794
H   -4.51900850  -0.91854460   2.36435455
H   -3.50041829   0.33214266   1.69255128
C   -4.23321531   0.76760009   3.66445790
N   -4.12233381   1.23623326   4.70502496
C   -1.89717465   4.10947511  -1.57254800
H   -1.44305426   3.46557954  -0.84861890
H   -2.89901321   4.33421854  -1.27136867
H   -1.33467293   5.01675356  -1.64560082
C   -1.91845196   3.40693687  -2.94279881
N   -1.93429389   2.88386521  -3.96301283
C   -3.32381357  -2.29854578  -0.57105142
H   -3.72924982  -2.93568453   0.18695639
H   -4.07389236  -2.09826590  -1.30737259
H   -3.00288787  -1.37831440  -0.12937280
C   -2.12262666  -2.99424209  -1.23795220
N   -1.22828840  -3.51221961  -1.73449014
C    1.23373493   4.10621580   0.99377299
H    0.82687171   4.79307022   1.70622896
H    2.20150841   3.78624926   1.31924956
H    0.58783550   3.25753438   0.90744305
C    1.35605603   4.79963960  -0.37582585
N    1.44712964   5.31592514  -1.39555445
C   -0.29095187  -2.78111628   1.96450808
H   -0.05509109  -1.76540830   1.72449312
H   -0.22130505  -3.38164081   1.08166115
H    0.39872530  -3.14371317   2.69783474
C   -1.72327652  -2.85680173   2.52514861
N   -2.78970733  -2.91315300   2.94257097
C    1.73949457  -5.09855850  -2.50466721
H    2.72509290  -4.72667099  -2.69227263
H    1.01841936  -4.40639381  -2.88658038
H    1.61708639  -6.04473222  -2.98909535
C    1.53495493  -5.26821570  -0.98776907
N    1.38266587  -5.39453319   0.14163055
C   -4.32197362   1.16981772  -1.74005779
H   -3.30585737   0.92273803  -1.51343128
H   -4.37237076   1.61653586  -2.71103777
H   -4.91707065   0.28069595  -1.72518889
C   -4.85539332   2.16216007  -0.69014346
N   -5.25254852   2.90100406   0.09156548
C    5.60567609  -0.87893600  -2.02901618
H    5.30045652  -1.83728250  -2.39413696
H    6.60616176  -0.67699407  -2.35018118
H    4.94925160  -0.12573265  -2.41201839
C    5.54977309  -0.87432864  -0.49003807
N    5.50815077  -0.87089826   0.65580109
C    4.15856237  -3.95317808   1.73597986
H    3.09540685  -3.88111644   1.83297279
H    4.61371916  -3.07072919   2.13474713
H    4.50857975  -4.80929876   2.27398015
C    4.52986334  -4.09478617   0.24813486
N    4.80631379  -4.20021983  -0.85963337
C    1.72715054  -1.55304543  -0.78740448
H    2.30310932  -2.28683284  -0.26325975
H    0.68621699  -1.78133407  -0.69127578
H    1.91988335  -0.58560301  -0.37290681
C    2.11897615  -1.56076901  -2.27670400
N    2.41070812  -1.56651956  -3.38555518
Cl  -0.94508364   0.70264783   0.20505507
