91
Energy:   -559.72635183
C    2.12687823   2.97989427  -1.58052087
H    2.90374018   2.63553530  -2.23075360
H    1.68482057   3.86408965  -1.99001157
H    1.38001218   2.21985574  -1.48340425
C    2.71994020   3.29682125  -0.19508420
N    3.16150180   3.53278779   0.83643638
C    1.49092563   1.90080180   3.31434534
H    0.92597319   1.84823055   2.40717105
H    2.26423276   1.16149868   3.29628760
H    1.92880493   2.87278876   3.40600865
C    0.56083013   1.64157384   4.51406332
N   -0.13166825   1.44856685   5.40730788
C    0.75889889  -0.62045307  -3.21610827
H    0.26149008  -0.03392714  -2.47215129
H    0.65513980  -1.65885987  -2.97979393
H    0.32203960  -0.42717252  -4.17355053
C    2.25288473  -0.24826127  -3.24896509
N    3.36522509   0.02885245  -3.27342849
C   -2.99049522   1.48344912   3.45592853
H   -3.99816583   1.19290678   3.24359558
H   -2.68647996   1.05975676   4.39025106
H   -2.34614109   1.13080173   2.67788826
C   -2.90514567   3.01896454   3.53659976
N   -2.84159905   4.16222557   3.59666316
C   -3.76772253   3.75527509   0.05954915
H   -3.43105038   4.54615339   0.69678031
H   -4.10522355   4.16496693  -0.86950669
H   -2.96130743   3.07589622  -0.12221479
C   -4.92716658   3.00514791   0.74116395
N   -5.79042537   2.44664414   1.24865714
C   -4.35895524  -0.52773715   0.28363578
H   -3.66809011   0.28828359   0.24221460
H   -5.35931696  -0.14810492   0.29104458
H   -4.22182731  -1.15495944  -0.57233572
C   -4.11087278  -1.34585386   1.56454958
N   -3.92616411  -1.95497893   2.51824812
C   -1.35045963   3.71761697  -2.82237647
H   -0.89501455   4.68203711  -2.90818886
H   -1.09249403   3.28403876  -1.87878610
H   -2.41359206   3.81794111  -2.89007862
C   -0.84712083   2.80920805  -3.95949707
N   -0.47236221   2.13285631  -4.80613505
C   -1.25574196  -2.88294178   0.06803335
H   -1.17291406  -1.83359453   0.26015327
H   -0.34668761  -3.37044501   0.35239206
H   -2.06899723  -3.28615598   0.63454307
C   -1.51283174  -3.11125056  -1.43309288
N   -1.70424677  -3.28123682  -2.55074958
C   -0.18535216   4.70954020   1.54362674
H   -0.64515865   3.76018243   1.36418877
H   -0.79703857   5.28198457   2.20924395
H    0.77870591   4.56144992   1.98358174
C   -0.03072603   5.46515438   0.21068339
N    0.08440014   6.02774349  -0.78175352
C   -0.61562231  -1.52985111   3.28505381
H   -1.04610746  -2.49179789   3.10001027
H   -0.83823951  -0.87625627   2.46764665
H   -1.02336689  -1.12421347   4.18732957
C    0.91120695  -1.66987004   3.42923109
N    2.04800075  -1.77412049   3.53657763
C    1.15242147  -5.45041601  -1.87532663
H    0.72607574  -6.23057663  -2.47070795
H    0.99958771  -4.50841664  -2.35924617
H    0.68251318  -5.43799668  -0.91411331
C    2.66232633  -5.70121785  -1.70536856
N    3.78651913  -5.88795122  -1.57882705
C   -2.86100913  -0.06556133  -3.07809409
H   -3.41618407  -0.97771131  -3.14638290
H   -2.20845284  -0.10775237  -2.23116476
H   -2.28210871   0.06711734  -3.96813329
C   -3.83435105   1.11702036  -2.91776300
N   -4.55904835   1.99750618  -2.79838921
C    5.06447422  -2.84268960  -2.46588217
H    5.49040959  -3.76986820  -2.78809187
H    5.39748454  -2.05473390  -3.10863331
H    3.99717281  -2.90781440  -2.50494051
C    5.50827673  -2.54858116  -1.02084253
N    5.83870787  -2.32960406   0.05505516
C    3.63800022  -4.35460608   1.84163790
H    3.67068483  -3.28806038   1.92108712
H    4.12741331  -4.66030448   0.94057053
H    4.13512081  -4.79033865   2.68301020
C    2.17108518  -4.82252907   1.81320666
N    1.07890026  -5.17091901   1.79203830
C    2.84832802  -0.22084840   0.53682991
H    3.34543863  -0.44843916   1.45660361
H    2.00409843   0.40647123   0.73341468
H    3.52509903   0.28685710  -0.11823895
C    2.37387466  -1.52687789  -0.12708348
N    2.02062256  -2.49927620  -0.62139718
Cl  -0.82724119   1.06863863   0.10297516
