91
Energy:   -557.94571475
C    1.91821658   3.04157727  -0.38031559
H    2.85457755   2.55429500  -0.55548493
H    1.76734082   3.80050982  -1.11933994
H    1.12640935   2.32428329  -0.43887955
C    1.92731557   3.68297222   1.01973074
N    1.93409018   4.16051991   2.06212887
C    1.97447720   0.20807494   2.73320145
H    1.06031805   0.24838118   2.17859471
H    1.97372650   0.97595216   3.47836124
H    2.06293836  -0.74769233   3.20604672
C    3.16394763   0.42048567   1.77840211
N    4.04956243   0.57863511   1.06751060
C    0.02957922   1.57485140  -3.57349801
H   -0.31078088   1.41849162  -2.57119726
H   -0.19210411   0.71075249  -4.16433526
H   -0.46515446   2.42768019  -3.98921516
C    1.55055097   1.81611361  -3.56737594
N    2.68298357   1.99574428  -3.56281778
C   -0.02553425  -2.95638351   1.84448726
H    0.38089815  -3.54923884   1.05187421
H    0.68958082  -2.88185457   2.63692336
H   -0.25387919  -1.97778673   1.47691955
C   -1.31108048  -3.61882998   2.37376560
N   -2.26822808  -4.11205149   2.76783739
C   -4.91344437   1.72566071   1.26911624
H   -3.93253594   1.36016601   1.04745782
H   -5.64332969   1.06822628   0.84491524
H   -5.04649768   1.76940210   2.32990962
C   -5.08323302   3.13496160   0.67192043
N   -5.20964838   4.18425017   0.22728101
C   -3.75341810   2.04794586  -2.40840537
H   -3.64409627   3.10603351  -2.52416133
H   -3.06687473   1.69751910  -1.66627440
H   -4.75406883   1.82410115  -2.10264278
C   -3.45867950   1.35161100  -3.74998911
N   -3.23923322   0.83315805  -4.74885918
C   -1.73286206   4.38045985   0.45577223
H   -0.90729633   4.66726830   1.07309089
H   -2.03286480   3.38333731   0.70203243
H   -2.55101054   5.05005833   0.62060558
C   -1.31175690   4.43905999  -1.02437522
N   -0.99822497   4.48269046  -2.12641228
C   -3.84534226  -2.25482620   0.34101025
H   -4.30545824  -2.35062571   1.30226771
H   -2.89780739  -1.76896452   0.44596352
H   -3.70290802  -3.22613605  -0.08462898
C   -4.75186155  -1.41826253  -0.58093553
N   -5.42680637  -0.79540286  -1.26736606
C   -0.68188633   2.72616448   3.62139154
H   -0.52480494   2.31155941   2.64757007
H   -0.21596566   2.10132761   4.35446445
H   -0.25490734   3.70631688   3.66485785
C   -2.19307682   2.81149728   3.90533099
N   -3.31822683   2.87503143   4.11673683
C   -2.89312089  -0.65639771   3.62837586
H   -3.53786206   0.02284544   4.14590629
H   -3.32720811  -1.63437450   3.63373977
H   -2.76630246  -0.32800247   2.61794390
C   -1.52293576  -0.69908830   4.33006682
N   -0.50277064  -0.73087339   4.85250764
C    2.26313722  -4.83387841  -1.60787478
H    1.63042189  -4.56851757  -2.42894428
H    1.83005355  -4.48099286  -0.69529086
H    2.36552843  -5.89814160  -1.56593451
C    3.64972673  -4.19194648  -1.79995012
N    4.68210565  -3.71399898  -1.94295894
C   -1.86515916  -1.68525297  -2.82289112
H   -1.75048252  -0.79642167  -2.23831575
H   -2.89822231  -1.82137973  -3.06609706
H   -1.29541120  -1.59539902  -3.72411952
C   -1.36337937  -2.89790953  -2.01711130
N   -0.98978152  -3.80078745  -1.41717159
C    5.11878264  -0.08837094  -2.38731309
H    4.47624768   0.38192632  -1.67256174
H    4.68933386  -1.01882834  -2.69508225
H    5.23365888   0.55019916  -3.23815430
C    6.49630443  -0.34514836  -1.74848675
N    7.52193201  -0.53633083  -1.27285151
C    5.91440107  -2.43872111   1.13328651
H    6.51099629  -2.86973610   1.90994628
H    6.00397844  -1.37293662   1.16456600
H    6.25218251  -2.79731122   0.18343604
C    4.44067007  -2.83621368   1.33753293
N    3.34341035  -3.13216496   1.48960367
C    1.79250714  -1.03625700  -1.08116326
H    1.74480159   0.03077665  -1.01741730
H    2.72227911  -1.37658478  -0.67545377
H    0.98353384  -1.46324666  -0.52605865
C    1.68730751  -1.46762507  -2.55576647
N    1.60898161  -1.78879820  -3.65367559
Cl  -1.17127095   0.59681724   0.31276398
