91
Energy:   -557.46957693
C    2.20281604   3.08626025  -1.23895503
H    1.97939813   4.01496642  -1.72112666
H    1.32082535   2.48149317  -1.20362378
H    2.96497736   2.57370016  -1.78785517
C    2.69683639   3.35773399   0.19416949
N    3.06465699   3.55985853   1.26119584
C    1.32645860   1.78388060   3.58991664
H    1.84187104   2.71747888   3.67734919
H    0.85020099   1.72760916   2.63340668
H    2.02566221   0.97990193   3.68805785
C    0.26377253   1.67831390   4.69949042
N   -0.52744556   1.59971470   5.52561853
C    1.13773984  -0.31484570  -2.67695832
H    1.98355877   0.13184061  -2.19741494
H    0.45704270  -0.67683067  -1.93498973
H    0.64643525   0.41493724  -3.28600326
C    1.60720006  -1.48709631  -3.55845455
N    1.95673453  -2.35989018  -4.21476856
C   -3.20426093   1.49824369   3.38861269
H   -3.07224670   0.95279754   4.29963460
H   -3.05665264   2.54182642   3.57312819
H   -2.49312623   1.16005090   2.66417348
C   -4.63021322   1.26804381   2.85450775
N   -5.69189951   1.09664953   2.45684235
C   -4.24484666   3.10377886  -0.16800245
H   -4.43992163   3.62272653  -1.08317416
H   -5.09434747   2.50736970   0.09188904
H   -3.38995023   2.47224075  -0.29133448
C   -3.97184972   4.12421010   0.95261914
N   -3.76859108   4.88396754   1.78697286
C   -4.25081278  -0.78483957  -0.18919694
H   -3.49337030  -0.03173394  -0.25254502
H   -5.20771112  -0.31964648  -0.07588302
H   -4.24400570  -1.37358525  -1.08263483
C   -3.97354204  -1.69092694   1.02477448
N   -3.76710137  -2.36555018   1.92863139
C   -1.44607589   3.95616969  -2.40118430
H   -1.16825884   4.98764423  -2.33971775
H   -1.23852209   3.47469547  -1.46844474
H   -2.49140633   3.88057558  -2.61675074
C   -0.64015124   3.27337815  -3.52184534
N   -0.04010371   2.76500881  -4.35622843
C   -0.67272991  -2.89471100   0.13032534
H   -0.46623819  -1.86715002   0.34568496
H    0.24613841  -3.44096973   0.08361887
H   -1.29178225  -3.30333261   0.90149437
C   -1.40143583  -2.99931700  -1.22231847
N   -1.94399051  -3.07720091  -2.22942327
C   -0.38210361   4.61934376   1.91013179
H   -0.79834437   3.67862647   1.61569202
H   -1.09496178   5.15545911   2.50115857
H    0.50468552   4.45265151   2.48521251
C   -0.03335799   5.44158181   0.65557965
N    0.22629897   6.05377541  -0.27849145
C   -0.86617311  -1.48675636   3.42490368
H   -1.39896179  -2.41052592   3.33723264
H   -1.08150640  -0.86907272   2.57814659
H   -1.16903622  -0.98385165   4.31947614
C    0.64646242  -1.77002882   3.48226618
N    1.77268833  -1.98093804   3.52497516
C    1.53341557  -5.10926750  -2.26364493
H    1.36303016  -5.28072421  -3.30598441
H    1.34033402  -4.08198548  -2.03493057
H    0.88023517  -5.73161244  -1.68837001
C    2.99663037  -5.44530528  -1.92059823
N    4.08606030  -5.69550068  -1.66518436
C   -2.40075607   0.09506459  -3.35550358
H   -1.93468826   0.06423136  -2.39283527
H   -1.67997422   0.38397554  -4.09164425
H   -2.78744680  -0.87326206  -3.59573863
C   -3.55238882   1.11729391  -3.33577514
N   -4.40983175   1.87839011  -3.32108642
C    5.20360936  -2.43981653  -2.78066609
H    4.59182597  -2.73305783  -3.60809029
H    4.96027509  -3.03800280  -1.92751855
H    6.23425583  -2.57950396  -3.03197143
C    4.95097865  -0.95577911  -2.45599604
N    4.76288360   0.14915421  -2.21426443
C    3.42697240  -4.82826472   1.89684624
H    3.30235207  -3.85901157   2.33264240
H    4.04629285  -4.75157913   1.02767388
H    3.88852176  -5.48201400   2.60711602
C    2.05068551  -5.39272538   1.49832577
N    1.02597736  -5.81299200   1.20160916
C    2.93555710  -0.07323560   0.90263986
H    3.24041348  -0.21471342   1.91848767
H    1.98739586   0.42214198   0.88049462
H    3.66197152   0.52392421   0.39212899
C    2.81594123  -1.44205284   0.20720374
N    2.72688177  -2.46119950  -0.31058007
Cl  -0.82283657   1.05772528   0.24565067
