91
Energy:   -558.56459777
C    2.10500877   2.95898085  -1.86223891
H    2.81960707   2.54866009  -2.54479757
H    1.65768042   3.82946557  -2.29473490
H    1.34684883   2.23163140  -1.65961762
C    2.81152465   3.34352888  -0.54901458
N    3.33755783   3.62984238   0.42874062
C    1.85846563   2.09602892   3.08751621
H    2.44951723   2.98318309   2.99523591
H    1.35514473   1.90499421   2.16281468
H    2.49283624   1.26801816   3.32599300
C    0.81917765   2.28585414   4.20798347
N    0.04538052   2.42718765   5.04222228
C    0.89263262  -0.76113173  -2.97487861
H    0.23216824  -1.08317181  -3.75268140
H    1.72877754  -0.25089660  -3.40548386
H    0.37134745  -0.09866739  -2.31586278
C    1.39004581  -1.98544751  -2.18416313
N    1.76039254  -2.89700626  -1.59543951
C   -2.95089766   2.10065855   3.35883018
H   -3.94701786   1.72722970   3.24395793
H   -2.56620307   1.80326172   4.31196411
H   -2.32945692   1.70339475   2.58365796
C   -2.96531201   3.63791170   3.26802835
N   -2.97604415   4.78246655   3.20042227
C   -3.60702012   3.79396992  -0.29313320
H   -3.35311170   4.69311113   0.22837978
H   -3.88239899   4.03102421  -1.29954804
H   -2.76381988   3.13528336  -0.29980138
C   -4.78969883   3.10671279   0.41436147
N   -5.67025689   2.59501862   0.94112340
C   -4.26209059  -0.48297757   0.43511131
H   -3.54330859   0.28810221   0.25156681
H   -5.24884083  -0.08533763   0.32063190
H   -4.11573274  -1.28052522  -0.26302637
C   -4.08706224  -1.01718884   1.86884190
N   -3.95674568  -1.41493340   2.93631950
C   -1.29597073   3.37154179  -3.16930901
H   -2.34299823   3.54573077  -3.30455618
H   -0.76242072   4.29053986  -3.29447295
H   -1.12218313   2.98942004  -2.18509363
C   -0.80707037   2.34813748  -4.21104797
N   -0.44306182   1.58616645  -4.98666997
C   -1.01780240  -2.63667761   0.61217846
H    0.04687381  -2.56316216   0.53497596
H   -1.27221048  -3.33728821   1.37985053
H   -1.42483707  -1.67751102   0.85553278
C   -1.59815818  -3.11461309  -0.73183227
N   -2.03025943  -3.47045779  -1.73250935
C   -0.03943901   4.73317959   1.37865232
H   -0.49691946   3.76593008   1.38499284
H   -0.54926425   5.37338631   2.06793649
H    0.98711453   4.64409638   1.66701165
C   -0.12471177   5.33209102  -0.03755164
N   -0.18820122   5.77800781  -1.09197986
C   -0.66951329  -0.88944397   3.68035014
H   -1.27610993  -1.76939920   3.73153110
H   -0.97829022  -0.29126635   2.84864139
H   -0.77939636  -0.32742759   4.58420985
C    0.80609248  -1.29277904   3.50284401
N    1.90474806  -1.59308032   3.37068263
C    0.42779851  -6.03282368  -1.66359494
H    0.27800292  -5.16467051  -2.27086058
H   -0.02543917  -5.88099756  -0.70629482
H   -0.01795998  -6.88164475  -2.13867520
C    1.93727731  -6.27916398  -1.48362220
N    3.06115290  -6.46257554  -1.34962431
C   -2.80490305  -0.35336565  -2.91186858
H   -3.36512598  -1.26170089  -2.83455392
H   -2.14617613  -0.26809172  -2.07299655
H   -2.23209827  -0.36342175  -3.81557907
C   -3.77108758   0.84570274  -2.92982502
N   -4.49045588   1.73846367  -2.94319441
C    4.99532002  -3.44966890  -2.32853517
H    5.80641668  -3.87772675  -2.87970562
H    4.65862432  -2.56158399  -2.82132344
H    4.19121408  -4.15338666  -2.27291100
C    5.46984957  -3.09893586  -0.90606969
N    5.82315839  -2.83779916   0.15302052
C    2.99380186  -4.17515828   1.50754286
H    2.85943800  -3.31671262   0.88310905
H    3.66214958  -4.86164167   1.03114915
H    3.40475439  -3.87155092   2.44767035
C    1.63379743  -4.85962425   1.73883119
N    0.62121232  -5.36924027   1.91103586
C    3.26864478  -0.14706811   0.54779657
H    2.19899557  -0.16558664   0.52760204
H    3.60001331   0.68937939   1.12697665
H    3.63279554  -1.05203705   0.98748342
C    3.80711315  -0.02179538  -0.88954770
N    4.20802733   0.07147586  -1.95971585
Cl  -0.67141775   1.07959305   0.14263187
