91
Energy:   -556.97917673
C    2.17839862   3.16080935  -1.35406907
H    2.92703276   2.81606757  -2.03641810
H    1.76917979   4.08325268  -1.70978995
H    1.39999621   2.43041916  -1.27977933
C    2.81021299   3.38056723   0.03305640
N    3.28062750   3.54418697   1.06583437
C    1.69760148   1.74361687   3.51458554
H    1.12112842   1.70265989   2.61408484
H    2.43773528   0.97103682   3.49971546
H    2.17836341   2.69676137   3.58726723
C    0.77011292   1.54268612   4.72743005
N    0.07955552   1.39308404   5.63044791
C    0.92233986  -0.44993683  -2.93875770
H    0.29156644  -0.88192476  -3.68736407
H    1.72850519   0.07266220  -3.40980632
H    0.35330554   0.23369599  -2.34399287
C    1.48889169  -1.56427128  -2.03938138
N    1.91071528  -2.39394394  -1.36975483
C   -2.83874087   1.39883234   3.73290683
H   -2.23165814   1.09948301   2.90420862
H   -3.84947997   1.09084196   3.56424301
H   -2.47120097   0.94170364   4.62780731
C   -2.78676005   2.93087381   3.88037514
N   -2.74805797   4.07154833   3.99017199
C   -3.68533851   3.70930133   0.43763253
H   -3.35766996   4.49483343   1.08607129
H   -4.02953922   4.12843688  -0.48472877
H   -2.87067546   3.04299706   0.24459932
C   -4.83405242   2.93445914   1.10970092
N   -5.68932214   2.35755391   1.61008639
C   -4.23549526  -0.54995755   0.43353884
H   -3.52831518   0.24941618   0.35739319
H   -5.22652614  -0.14770516   0.46435910
H   -4.13830098  -1.19420858  -0.41522083
C   -3.96684892  -1.35216245   1.72035524
N   -3.76682951  -1.94944046   2.67844854
C   -1.32930960   3.87266275  -2.44897896
H   -0.91298156   4.85794818  -2.47697453
H   -1.11455738   3.42147024  -1.50282575
H   -2.38914584   3.92930008  -2.58476725
C   -0.71222040   3.02245126  -3.57500798
N   -0.25276945   2.38943016  -4.41338776
C   -1.13518212  -2.80584992   0.21602791
H   -1.28212113  -1.77740750   0.47218273
H   -0.09317916  -3.04224464   0.27300561
H   -1.67915275  -3.42468308   0.89869954
C   -1.64049494  -3.05514980  -1.21718824
N   -2.01672330  -3.24076490  -2.28428281
C   -0.06938243   4.63460025   1.95780351
H   -0.55603685   3.70533509   1.74677287
H   -0.63877984   5.17904645   2.68186430
H    0.91023174   4.44456118   2.34399039
C    0.04063082   5.46196756   0.66360089
N    0.12254069   6.07798012  -0.29999179
C   -0.43731551  -1.53615919   3.43572199
H   -0.67127399  -1.13141079   4.39818879
H   -0.99855860  -2.43378745   3.28025884
H   -0.68802973  -0.82307745   2.67838725
C    1.06802406  -1.85308583   3.36423575
N    2.18881780  -2.08905212   3.31101100
C    0.69754557  -5.40506749  -2.71407917
H   -0.31011083  -5.72938073  -2.87012301
H    0.75577277  -4.84785735  -1.80247314
H    1.34117404  -6.25763684  -2.65270336
C    1.13767082  -4.51320080  -3.88986128
N    1.46536407  -3.84916551  -4.76528450
C   -2.71507268   0.07180757  -2.89838197
H   -3.24657628  -0.84132217  -3.06749191
H   -2.08921337  -0.03407175  -2.03699426
H   -2.11114224   0.29642227  -3.75261575
C   -3.72008453   1.21514367  -2.66528596
N   -4.46836153   2.06640937  -2.49173539
C    4.64136503  -2.97683557  -3.23621248
H    3.82965995  -2.74917262  -3.89515453
H    5.55812824  -2.98149505  -3.78795754
H    4.69298758  -2.23692345  -2.46500287
C    4.41586160  -4.36271667  -2.60369231
N    4.24796405  -5.39456815  -2.13275228
C    3.26073967  -4.47838219   1.10757408
H    3.26696566  -3.53172108   0.60888163
H    3.97856890  -5.12701249   0.65051934
H    3.51071005  -4.33996669   2.13871667
C    1.85886843  -5.10653975   0.99906085
N    0.81511157  -5.57423160   0.91826781
C    3.25474866  -0.06998531   0.72005876
H    3.31547305  -1.10638005   0.97909286
H    2.22804395   0.21075564   0.61069216
H    3.70485868   0.51772038   1.49265315
C    3.99721758   0.17173485  -0.60731130
N    4.55001943   0.35170650  -1.59559864
Cl  -0.66774567   1.08961614   0.34159119
