91
Energy:   -559.70977531
C    2.15485621   3.21694248  -1.47974101
H    1.38913189   2.47244328  -1.41426289
H    2.91455725   2.88854400  -2.15790608
H    1.73181933   4.13342667  -1.83469961
C    2.77238322   3.44206137  -0.08705229
N    3.23216014   3.60967261   0.94986777
C    1.51502812   1.96012241   3.41989645
H    1.85277843   2.96506706   3.56450333
H    0.88608943   1.91614604   2.55537271
H    2.35865400   1.31691800   3.28031658
C    0.71992965   1.50277916   4.65693144
N    0.12794269   1.16226632   5.57796023
C    0.84740814  -0.47106764  -3.00977037
H    0.27460795   0.29308773  -2.52720774
H    0.73924714  -1.39043710  -2.47315124
H    0.49692016  -0.59999638  -4.01248401
C    2.33192653  -0.06211366  -3.03347218
N    3.43721795   0.24237117  -3.05111926
C   -2.77376672   1.24937741   3.59856053
H   -3.80082333   0.99522891   3.43898783
H   -2.42476725   0.77854771   4.49377997
H   -2.18978144   0.91277461   2.76756182
C   -2.63837333   2.77726319   3.73579631
N   -2.53756679   3.91484361   3.83797459
C   -3.76722136   3.63302231   0.32920770
H   -3.31140759   4.32555357   1.00562063
H   -4.19864487   4.16734293  -0.49132525
H   -3.02697378   2.95307313  -0.03767339
C   -4.86773019   2.84588984   1.06466863
N   -5.68710905   2.25983394   1.61225272
C   -4.23352984  -0.63054158   0.31593429
H   -3.53136445   0.16892249   0.20314626
H   -5.21769094  -0.22709412   0.43236525
H   -4.20469952  -1.25567101  -0.55198340
C   -3.86916029  -1.46211738   1.55984607
N   -3.59787060  -2.08126337   2.48599493
C   -1.37675778   3.90263668  -2.58541644
H   -0.97146899   4.88951832  -2.66730536
H   -1.12486577   3.49175301  -1.63010281
H   -2.44117433   3.94470158  -2.68614905
C   -0.79064171   3.01308657  -3.69751740
N   -0.35425166   2.35077609  -4.52552713
C   -1.01688020  -2.76705632  -0.06482921
H   -1.01656188  -1.70904091   0.09486884
H   -0.01107336  -3.10863216  -0.19358341
H   -1.45383854  -3.25531553   0.78108417
C   -1.83605638  -3.09546606  -1.32685038
N   -2.44597028  -3.33998204  -2.26648250
C   -0.13720434   4.81004877   1.64646678
H   -0.57995135   3.86527582   1.40923411
H   -0.77052565   5.33991668   2.32693957
H    0.81942875   4.65205428   2.09900402
C    0.03469339   5.63459729   0.35721471
N    0.16267907   6.24851115  -0.60269206
C   -0.28064670  -1.63817033   3.22862286
H   -0.53073005  -0.96964091   2.43148616
H   -0.70192576  -1.27615527   4.14315451
H   -0.67336999  -2.61035371   3.01525231
C    1.25084400  -1.72216685   3.36675622
N    2.39110844  -1.78470607   3.46960278
C    1.00313008  -5.34024948  -1.97165603
H   -0.04475950  -5.52832602  -1.86462887
H    1.37652606  -4.88353241  -1.07897240
H    1.51582802  -6.26402629  -2.14099683
C    1.23599531  -4.39734125  -3.16677020
N    1.40937405  -3.69530322  -4.05658702
C   -2.78324117   0.05310005  -3.01445506
H   -2.15784344  -0.05107250  -2.15252355
H   -2.17752643   0.26152908  -3.87152337
H   -3.32565725  -0.85541607  -3.17345932
C   -3.77445092   1.21063475  -2.79260679
N   -4.51245163   2.07247195  -2.62743066
C    4.76970189  -2.94875433  -2.93490322
H    5.66751881  -2.92461133  -3.51648904
H    4.81605531  -2.19598252  -2.17590055
H    3.92844128  -2.76385230  -3.56971888
C    4.62158853  -4.33305406  -2.27658968
N    4.51131141  -5.36372812  -1.78644534
C    3.37652694  -4.78238849   1.80780587
H    3.63347682  -3.77594681   2.06461728
H    3.76297754  -5.01250661   0.83692963
H    3.79785373  -5.45278757   2.52749185
C    1.84411289  -4.93484080   1.79971561
N    0.70316097  -5.04834848   1.79369204
C    3.00649488  -0.01963475   0.57952913
H    3.51734105  -0.10819761   1.51552752
H    2.07886709   0.49298748   0.72658095
H    3.61377278   0.53187688  -0.10745526
C    2.73232211  -1.42373019   0.00948942
N    2.52818803  -2.46914307  -0.41493106
Cl  -0.72367109   1.16076434   0.18473520
