91
Energy:   -557.37329028
C    1.74114057   2.82162040  -0.70535276
H    2.22405964   3.18724700  -1.58739956
H    0.83028950   3.36058046  -0.54796324
H    1.52376673   1.78058555  -0.82322618
C    2.66990027   3.01800414   0.50726377
N    3.36140408   3.16422077   1.41011190
C    2.05376404   1.03446795   3.70462229
H    1.47432122   1.19694998   2.81989308
H    2.63633125   0.14419307   3.59093335
H    2.70465430   1.86884346   3.86292099
C    1.11247018   0.88106832   4.91376844
N    0.41163412   0.76685532   5.81403272
C    2.03764687   0.53921395  -4.45682443
H    1.52882290   1.46671472  -4.61726348
H    1.34533514  -0.18812194  -4.08724890
H    2.45522699   0.19703036  -5.38064060
C    3.16538316   0.74361512  -3.42821809
N    4.00503410   0.89580109  -2.66237391
C   -2.66739645   1.29194495   4.47336610
H   -3.62091705   0.92487700   4.15562446
H   -2.38864210   0.81451384   5.38947452
H   -1.93506151   1.07887605   3.72290872
C   -2.75025245   2.81405498   4.69226324
N   -2.81194252   3.94733507   4.85524211
C   -3.70698485   3.63148174   1.31510198
H   -3.56076232   4.45261415   1.98537112
H   -4.03337730   4.00024679   0.36516545
H   -2.78551961   3.10117484   1.19437296
C   -4.77389786   2.68216272   1.89137450
N   -5.56826310   1.97535156   2.32043559
C   -4.41579642  -0.31801241  -0.10116951
H   -4.34933074  -1.22025519  -0.67251919
H   -5.28035570  -0.35716751   0.52803890
H   -3.53916456  -0.21326432   0.50334972
C   -4.52883301   0.88614002  -1.05450033
N   -4.61299390   1.78268624  -1.76429846
C   -1.84567173   3.93088764  -1.85572815
H   -1.75418203   4.94090421  -1.51455906
H   -1.66054155   3.26136037  -1.04187366
H   -2.83416622   3.76978706  -2.23232387
C   -0.82110261   3.67270153  -2.97608437
N   -0.05826434   3.48047024  -3.81024051
C   -1.16923583  -2.79567606   0.03700641
H   -0.85971455  -3.04595255  -0.95619974
H   -0.49085149  -2.07998649   0.45231621
H   -2.15438354  -2.37900783   0.00924550
C   -1.17320514  -4.06521600   0.90870164
N   -1.17616048  -5.01044620   1.55771836
C    0.12153576   4.08508700   2.94392951
H   -0.27626090   3.09876217   2.82636540
H   -0.26003021   4.51853312   3.84472414
H    1.18907934   4.03519648   2.99647212
C   -0.29323014   4.95262564   1.74103885
N   -0.60204221   5.59854759   0.84543207
C   -0.90574866  -1.93164947   3.72015247
H   -0.94949645  -1.46908009   4.68400717
H   -1.47534134  -2.83735242   3.73301529
H   -1.31044518  -1.26619062   2.98647384
C    0.55946617  -2.25163225   3.37035753
N    1.65038522  -2.48987397   3.10991930
C    0.03554243  -4.02746627  -4.00578345
H   -0.96015267  -3.87464378  -4.36652814
H    0.10501197  -3.68488365  -2.99449209
H    0.27354427  -5.06987019  -4.04638249
C    1.02607190  -3.24019548  -4.88365366
N    1.76356611  -2.65403660  -5.53726792
C   -1.23457372   0.24898055  -2.59613119
H   -0.33972420   0.01853063  -2.05665242
H   -1.83221968   0.92648372  -2.02280071
H   -0.98041585   0.70165046  -3.53175548
C   -2.02812344  -1.04595055  -2.85114553
N   -2.61895727  -2.01008561  -3.04101529
C    4.42637784  -2.99185343  -3.32080968
H    3.83812129  -2.10865225  -3.45795959
H    3.84941741  -3.85063130  -3.59378644
H    5.29944967  -2.93814208  -3.93705619
C    4.84684921  -3.10430912  -1.84359692
N    5.15990926  -3.18803749  -0.74374487
C    2.31616436  -4.74506231   0.58768422
H    3.33989212  -4.67843298   0.89172728
H    1.80116235  -5.43904381   1.21860552
H    1.85699944  -3.78188775   0.66744287
C    2.24483367  -5.22839635  -0.87276096
N    2.19172473  -5.58826052  -1.96012878
C    2.73918849  -0.67386178   0.38726676
H    3.45505597   0.05070573   0.05949267
H    3.23167308  -1.42280348   0.97159916
H    1.99102062  -0.19246086   0.98173887
C    2.07686605  -1.33163980  -0.83758306
N    1.58373689  -1.82138543  -1.74953942
Cl  -0.86009780   0.86919248   0.97851322
