16
Energy:   -461.55271963
O    1.10790667  -0.07871115   1.68186825
H    1.95140007  -0.24695492   2.10192153
H    0.46264311  -0.21755726   2.37511317
O    1.17767185   0.89792652  -1.64575738
H    1.05465030   0.35431375  -2.42394932
H    1.76308952   1.59877254  -1.93269441
O    0.75635455  -0.72050342  -3.76941671
H    0.17031474  -0.55386600  -4.50767220
H    1.33003644  -1.42425021  -4.07250314
O   -1.27968051  -0.31065627   3.13584395
H   -1.57888304  -1.15786988   3.46590272
H   -1.49442022   0.30822441   3.83377332
O   -1.58406354   0.38793425   0.43592326
H   -2.45412210   0.54477680   0.06900317
H   -1.74687281   0.16335093   1.35204952
Li   0.30081014   0.40492095  -0.01262892
