16
Energy:   -486.30854589
O    0.23693675  -1.87723453   1.78647156
H    1.16374568  -2.07561702   1.92026778
H   -0.22682315  -2.54649917   2.28970455
O    0.77578383   0.80248073  -2.64859378
H    1.40044996   0.36080911  -3.22387655
H    0.48372879   1.56336673  -3.15057804
O   -1.64103573   0.79170724   1.72270167
H   -1.62784296   1.35221520   2.49851649
H   -2.54538059   0.83346120   1.41181773
O   -0.84247013  -0.71662797  -1.02606865
H   -1.34854489  -1.36810040  -1.51156208
H   -0.34407820  -0.25079857  -1.69751508
O    1.31574637   0.91400861   0.40681739
H    2.11851507   1.19427580   0.84641331
H    1.37607560   1.29537316  -0.46905549
Li  -0.23704683  -0.25497728   0.80400094
