16
Energy:   -461.56196569
O    1.82040185  -0.36277796  -0.06949136
H    2.69711174   0.00646665  -0.17565185
H    1.91019697  -1.27621270  -0.34116333
O   -0.64105921   1.72172616   1.24328055
H   -0.71379495   2.10943919   2.11541584
H   -1.01433998   2.37934992   0.65640382
O    1.32250719  -3.05568905  -0.67894776
H    1.70908298  -3.75971692  -0.15824078
H    1.36042129  -3.37531445  -1.58040989
O   -1.66772352   3.49010116  -0.52418524
H   -2.59431188   3.63151225  -0.71826970
H   -1.22701299   4.26003625  -0.88363765
O   -0.89110227  -1.60914666   0.25836175
H   -1.74253791  -2.03426146   0.36115578
H   -0.31639899  -2.29968960  -0.07193877
Li   0.02219030   0.08300508   0.49887547
