16
Energy:   -460.45970254
O    0.05912228  -0.23135972  -1.09271103
H    0.12271861  -1.02993028  -1.61661217
H   -0.25765685   0.43273971  -1.70496488
O    0.94617599  -2.16423994   1.19196322
H    1.84116264  -2.31181763   0.88626471
H    0.92902288  -2.53732044   2.07329662
O   -1.46121153  -0.49342001   1.82150380
H   -1.67574066  -0.47811316   2.75422819
H   -2.27988955  -0.73965527   1.39096187
O    1.40414671   1.16252902   1.44666384
H    2.35217103   1.27322308   1.51897265
H    1.06394953   2.05358738   1.36596243
O   -1.03751614   1.60365322  -3.27626911
H   -1.60492393   1.37205318  -4.01155250
H   -0.60711325   2.41328590  -3.55100557
Li   0.28689417  -0.29118311   0.84998419
