16
Energy:   -460.73245002
O   -1.31060618   0.62244565  -0.73286381
H   -2.11142538   0.96932769  -1.12604738
H   -0.70410477   1.36297432  -0.73059039
O   -0.39790267  -1.16856319   1.95447482
H    0.42302165  -0.67728857   1.92342059
H   -0.52732616  -1.36118573   2.88311789
O    0.66309785   2.60793302  -0.51417914
H    1.06847260   3.01559276  -1.27950044
H    0.51570151   3.33240596   0.09380533
O   -0.83857422  -2.66484959  -1.12348845
H   -0.57726995  -2.64877973  -2.04419127
H   -0.99138646  -3.59047898  -0.93351343
O    1.61523145   0.21339714   0.60899353
H    1.48427386   1.09715110   0.26539362
H    2.56412484   0.08841287   0.59442899
Li  -0.82183792  -1.11191423   0.06247397
