16
Energy:   -463.67051261
O    1.55663229   1.25465821  -2.03414058
H    1.57656335   2.19532797  -2.21013776
H    2.29406736   0.90168645  -2.53196816
O   -0.60769314  -1.04334800  -1.79870905
H   -0.81684795  -0.92442881  -2.72517779
H   -0.93199755  -1.91941780  -1.58999821
O   -0.87914689   1.87158770  -0.34294694
H   -1.66905294   2.02311135  -0.86190827
H   -0.95592946   2.47803747   0.39363636
O    0.78143261  -0.86606344   0.77557625
H    1.66171928  -1.22009143   0.90203342
H    0.36753185  -0.93917752   1.63556016
O   -0.82879762  -1.29220960   3.30540048
H   -1.63253376  -1.13123861   3.79969635
H   -0.20303587  -1.60335599   3.95949681
Li   0.31002487   0.28886302  -0.70459651
