16
Energy:   -485.05394691
O   -0.32016928  -1.11764423   0.91976998
H   -0.42129384  -1.98583025   1.30997340
H   -0.33774116  -0.51636100   1.66433802
O   -1.43692539  -0.35602888  -1.92192071
H   -2.25819243  -0.82973629  -1.79018774
H   -1.60859103   0.21918056  -2.66750561
O    0.48983149   1.62292875  -0.40889972
H    1.03118817   2.31995097  -0.77947334
H    0.12145619   2.00338632   0.38846062
O    1.70936886  -1.21158145  -1.59284634
H    2.57557153  -1.38691452  -1.22517380
H    1.69832147  -1.69197891  -2.42069179
O   -0.41126947   0.89909563   2.78046939
H   -1.24580355   1.15411401   3.17385258
H    0.25088826   1.22443365   3.39033343
Li   0.16527828  -0.29089249  -0.78790886
