16
Energy:   -485.15659562
O   -1.26002430   0.98689037   0.32592554
H   -1.80620749   1.66839807   0.71766910
H   -1.63576045   0.84845119  -0.54349311
O    0.26549151  -0.92536304   2.64090823
H   -0.53478835  -1.10186749   3.13550925
H    0.97341173  -1.19837369   3.22447143
O    0.37079923  -1.21340676  -0.71978030
H   -0.13342769  -0.85313370  -1.44929410
H    0.73238835  -2.03213462  -1.05914715
O    1.92201860   1.09374955   0.66245926
H    2.40603301   1.62649428   1.29344655
H    2.34712718   1.27034027  -0.17678460
O   -1.21562226   0.01783583  -2.62341558
H   -1.91383069  -0.54813804  -2.95267296
H   -0.86714939   0.44807285  -3.40424502
Li   0.34336919  -0.07423677   0.87106995
