16
Energy:   -485.94799683
O    0.09577492  -0.76995329   1.32678428
H    1.04479550  -0.64703843   1.34877775
H   -0.08452105  -1.37546446   2.04586802
O    2.82636855  -0.33170819   0.97254240
H    3.35595425  -1.12124678   0.86118877
H    3.40100512   0.27971387   1.43318080
O   -2.07944746  -1.03740807  -1.30070233
H   -2.24881329  -1.96520584  -1.46422103
H   -2.84802158  -0.58764443  -1.65175550
O   -1.85994146   1.53702561   0.25480107
H   -2.41220625   1.55625996   1.03637991
H   -1.91461187   2.42452502  -0.09958259
O    0.82285877   0.62337799  -1.30790514
H    1.70712099   0.52007105  -0.95628055
H    0.95590146   0.87759632  -2.22108888
Li  -0.74005435   0.00614761  -0.28001511
