16
Energy:   -488.18853444
O   -0.22119675   0.50170832  -2.79623969
H   -0.01757667   1.30079960  -3.28226833
H   -0.38005155  -0.15668698  -3.47263649
O    1.34512812  -0.21572972  -0.59866991
H    0.98737648   0.06380108  -1.44134906
H    2.19129859  -0.60731948  -0.81519896
O    0.60080365   1.35471913   1.99516603
H    0.24246963   1.56665568   2.85708916
H    1.28691430   2.00696055   1.85351446
O   -1.68644840   0.17243242  -0.15416125
H   -1.63961851   0.36608983  -1.09039606
H   -2.62271334   0.17509062   0.04491846
O   -0.03552959  -1.80620006   1.82495288
H   -0.53817905  -2.59208282   1.61056155
H    0.47300826  -2.05013764   2.59833219
Li   0.01444905  -0.09462305   0.81033698
