16
Energy:   -464.23393758
O    1.51559054   0.53763090   0.11711007
H    1.27473047   1.07281602   0.87328145
H    2.46782473   0.45792464   0.17304586
O   -0.45660401  -2.49213506  -1.29661465
H   -1.24423784  -3.01414728  -1.14374854
H    0.01817315  -2.96799642  -1.97806491
O    0.23955370   0.45500445  -2.32701074
H    0.99283002   0.84793583  -1.88608947
H    0.23311938   0.85731837  -3.19553475
O    0.07375640   1.41893390   2.36743571
H   -0.29589732   2.26616456   2.61600799
H    0.38563008   1.04242783   3.19036332
O   -1.52812691  -0.11214319   0.76671288
H   -2.35883058  -0.21589416   1.23082387
H   -1.02428854   0.49456415   1.30919324
Li  -0.23477359  -0.61270635  -0.69212141
