16
Energy:   -485.55131786
O   -0.52685114  -1.12328643   0.82740264
H    0.32930144  -1.24288690   1.23841400
H   -0.98969075  -1.94448877   0.99364959
O   -1.69131753   1.74604415   0.30062527
H   -1.84078359   2.65751329   0.04939678
H   -2.07707030   1.67133950   1.17346309
O    1.34766262   0.73541891  -0.78452367
H    1.85008502   1.35637910  -1.31198176
H    2.00576056   0.27630296  -0.26265061
O   -1.42976358  -0.05003399  -2.18887067
H   -2.34319945   0.12135899  -2.41798028
H   -1.04822212  -0.42067565  -2.98466129
O    2.06096720  -1.29740445   1.69855577
H    2.59637156  -2.08555852   1.79013737
H    2.38147920  -0.70880458   2.38196934
Li  -0.55730040   0.34169592  -0.47689862
