16
Energy:   -484.90389627
O    0.82746641   0.82860719  -2.05081843
H    0.89374396   0.84400898  -3.00559689
H    1.63309435   1.24720168  -1.74754607
O   -2.20019218   0.52303190  -1.47816398
H   -2.47244512   1.29552482  -1.97350718
H   -2.98646029  -0.02077564  -1.43033434
O    1.29900168  -0.66826384   2.56037735
H    1.00317254  -1.11594779   3.35302863
H    2.23859253  -0.54202984   2.69253576
O   -0.05902527   1.13399242   0.99412945
H   -0.34812595   1.88296589   1.51536969
H    0.42583327   0.58535365   1.61068404
O   -0.02311608  -1.71072843  -0.22424712
H   -0.03313517  -2.52124663  -0.73335587
H    0.27273017  -1.97764163   0.64607706
Li  -0.43543833   0.17790520  -0.69949980
