16
Energy:   -465.01268702
O   -1.02633073  -1.27204487   0.72455626
H   -0.26853692  -1.17474410   1.30119561
H   -1.53058839  -1.98867408   1.10978171
O    1.54639461   0.52848966  -0.15509873
H    2.44778244   0.60893666  -0.46696426
H    1.62168484   0.06678281   0.68000007
O   -1.32787222  -0.27241691  -2.51274487
H   -1.92255011  -0.96994197  -2.78851443
H   -1.22020041   0.27313982  -3.29185108
O    1.24350320  -0.92687576   2.14912831
H    1.86781585  -1.63606203   2.30249189
H    1.16321219  -0.49025517   2.99715406
O   -0.76103308   2.03717671  -0.52281860
H    0.15606124   2.19128482  -0.29605763
H   -1.16732625   2.90286043  -0.48099251
Li  -0.72684769   0.07990233  -0.64993410
