16
Energy:   -474.94585852
O   -1.91073312  -0.21509965   0.93182834
H   -2.60498665   0.36065446   1.25237643
H   -2.23038555  -1.09935248   1.11113563
O    0.39152724  -1.84930272  -0.13863419
H    0.84252558  -2.40213519   0.49949479
H    0.18257748  -2.43975454  -0.86247015
O   -0.99325045   0.68777388  -1.67323827
H   -1.93706602   0.69302967  -1.83266345
H   -0.61097831   1.02262510  -2.48439455
O    0.68180667   0.78326985   1.78351600
H    0.22170143   0.81608738   2.62224005
H    1.54777460   1.14571886   1.97049757
O    1.80621238   0.70877398  -0.89482032
H    2.19944891   1.55483375  -1.10878233
H    2.44960672   0.06388747  -1.18875392
Li  -0.02530882   0.11953125   0.00896102
