16
Energy:   -460.70247519
O   -0.93394610   1.77659833   1.85807094
H   -1.25949051   1.55918556   2.73156071
H   -0.71390736   2.70679173   1.90861824
O   -2.55567063   0.22911485  -0.20062631
H   -3.14003693   0.93332020  -0.48141574
H   -3.09965244  -0.55811695  -0.22474562
O    0.53996512  -0.90197537   0.46646782
H    0.40161131  -1.58062474   1.12716828
H    1.38062213  -1.12437089   0.06638298
O    2.50704199  -2.89351630  -0.94382931
H    2.36336570  -3.30981215  -1.79370385
H    3.44173584  -3.01084075  -0.77408179
O    0.33860567   1.70551794  -1.07862139
H    0.62098123   2.62006630  -1.06876241
H    0.74426284   1.33755072  -1.86365275
Li  -0.65277531   0.62844138   0.24338650
