16
Energy:   -461.16074571
O   -1.74797352  -2.12287909   1.20588651
H   -2.57065763  -1.99406851   1.67793581
H   -1.75037308  -3.05006405   0.96807534
O   -1.21833337  -0.24895200  -0.69688492
H   -1.95445457  -0.25817876  -1.30866289
H   -1.48881034  -0.83150097   0.01284091
O    1.02571635   0.47290772   1.85044490
H    1.45271537  -0.17915351   2.40607053
H    0.50302700   0.99877307   2.45583182
O    1.74593660  -0.39972265  -1.11942397
H    2.64033241  -0.56803362  -0.82284447
H    1.68955430  -0.83416357  -1.97049034
O    0.39618459   2.43839023  -1.26429185
H   -0.26164715   2.69213034  -1.91167519
H    1.06075623   3.12538028  -1.31548814
Li   0.41508442   0.77023618  -0.17379453
