16
Energy:   -492.22470113
O   -1.15787959  -0.54956342   0.88051773
H   -1.94724560  -0.97816069   1.21133118
H   -1.04554687   0.21524464   1.44503685
O   -0.74534739  -0.46026872  -2.39314822
H   -0.84439446   0.32684700  -2.92875103
H   -1.18047535  -1.14891033  -2.89580938
O   -0.34483858   1.84848901   2.07687120
H   -0.91426068   2.61781849   2.08793839
H    0.08035997   1.85227260   2.93443970
O    1.05136650   1.12048796  -0.23906702
H    0.71520129   1.55551740   0.54449802
H    1.82605461   1.62774914  -0.48150523
O    1.23423976  -2.16038466  -0.55127952
H    1.30016964  -2.77005205   0.18369719
H    1.85977827  -2.49232682  -1.19528869
Li   0.10413692  -0.55821960  -0.62718996
