16
Energy:   -461.97180058
O   -0.98811610  -2.59441007   0.59460030
H   -1.72803855  -2.75165306   1.18113356
H   -0.75112501  -3.46281267   0.26910990
O   -0.21361188   2.03172662   1.25779162
H   -0.65132847   2.53698577   1.94288228
H    0.36220007   1.43227478   1.73248093
O    1.16364998  -0.46196374   0.89085429
H    0.65295403  -1.26489696   0.99439050
H    2.06292233  -0.72209001   1.09054256
O   -1.31948483  -0.22224095  -1.06656732
H   -1.43099923  -1.05853705  -0.61445537
H   -1.96331738  -0.24444407  -1.77453519
O    1.33085493   1.76492924  -1.75337340
H    1.84131245   1.14082281  -2.26927662
H    1.69376653   2.62020008  -1.98367496
Li  -0.05307830   1.09781186  -0.50763158
