16
Energy:   -485.53748995
O   -0.36719131  -2.47500346   0.89141922
H    0.09206866  -3.31142850   0.81588587
H   -1.23934239  -2.70798241   1.20970391
O   -0.84653480   0.06214874  -1.21301147
H   -0.96166706   0.99779368  -1.04704475
H   -1.56918609  -0.16875466  -1.79669853
O    0.38286139   0.64201514   1.51470298
H    0.53739636   0.61890998   2.45906358
H    0.26297163   1.57017917   1.31378056
O   -1.15898397   2.67740916  -0.56429479
H   -0.72031808   3.38931517  -1.03012085
H   -2.03520035   3.01554587  -0.37952394
O    2.07968223  -1.15680307  -0.60515638
H    2.28161141  -1.17343281  -1.54066689
H    2.93482781  -1.15030634  -0.17513816
Li   0.31353086  -0.78167044   0.15135675
