16
Energy:   -492.14370612
O   -1.00875008   0.67153957  -0.97911825
H   -1.57306851   1.26606407  -1.47340278
H   -0.94556698  -0.11061106  -1.52727892
O    1.34805477   2.06274405   0.82074581
H    2.00036639   2.37962318   0.19599866
H    1.42774975   2.65224946   1.57065509
O    1.03211604  -1.14386579   0.23133653
H    0.69044422  -1.56588948  -0.55694529
H    1.76161958  -1.70018924   0.50439449
O   -0.35820919  -1.80847185  -2.10834454
H   -0.99221285  -2.52556917  -2.11487544
H    0.08584352  -1.87302846  -2.95385118
O   -0.96519428   0.42367082   2.26280286
H   -0.79924972  -0.12380490   3.03024314
H   -1.83335067   0.79619605   2.41694983
Li   0.11639692   0.54941333   0.62774256
