16
Energy:   -485.15559250
O    0.55816585   0.73069879  -1.21237620
H   -0.33895598   0.71158107  -1.54560103
H    1.08316847   1.03232558  -1.95374344
O   -1.19012891  -0.89021737   0.67305973
H   -1.81925029  -0.41859578   0.12715569
H   -1.67663230  -1.64643564   1.00120636
O    1.96344530  -1.62648367   0.66872502
H    2.40096710  -1.99657525   1.43543145
H    2.38716255  -2.05067007  -0.07743946
O   -2.18270446   0.46388795  -1.73659948
H   -2.89681616   1.04846648  -1.48254383
H   -2.46460842   0.08923053  -2.57110163
O    1.08541925   1.28136112   1.79590395
H    1.71528984   1.99369272   1.68600133
H    0.67336392   1.45384639   2.64248005
Li   0.64773644  -0.17355495   0.50353624
