16
Energy:   -484.06481603
O    0.99896415  -0.29138589  -1.12440579
H    1.48347279  -0.31388699  -1.94961905
H    1.65299815  -0.49698778  -0.45642433
O   -2.11897012  -1.08822349  -0.86551679
H   -1.93641352  -1.77892467  -1.50257002
H   -2.99090267  -1.29591089  -0.52961292
O   -0.43201734   0.24649440   1.60254765
H   -0.86946353   0.73576892   2.29931384
H    0.22445920  -0.28213759   2.05622003
O    2.61347752  -0.90538844   1.07676689
H    2.99178415  -1.74715190   1.33083423
H    3.18824051  -0.25323267   1.47748150
O   -1.27277595   2.04001578  -0.91848505
H   -2.11310533   2.44519743  -1.13274240
H   -0.64870554   2.76579756  -0.92145105
Li  -0.73957869   0.24718173  -0.35784813
