49
Energy:  -1900.35210547
O   -2.54167838  -2.67794899  -1.92470230
H   -3.21915752  -3.35258239  -1.97078520
H   -1.72885072  -3.13963746  -2.13058287
O    0.04085889  -0.59178121  -2.29203590
H   -0.63073246  -0.44449137  -2.95799581
H    0.26391934  -1.51873711  -2.37705739
O    0.69736799  -0.13008277   3.45159333
H    0.66849047   0.03146225   4.39462097
H    1.60503688   0.04797536   3.20529202
O    1.41983656  -0.72048751   0.27168610
H    1.48602910  -1.67488397   0.30295584
H    2.10287983  -0.41289925   0.86756629
O   -0.49575104   1.20936109   1.38238660
H   -0.91487720   2.03761723   1.61596075
H   -0.18662106   0.85350574   2.21547571
O    0.18588136  -3.33232461  -2.14500806
H    0.57332398  -3.95706508  -2.75804919
H    0.55313116  -3.57181957  -1.29412523
O    3.12442401   0.38342204   2.07730865
H    3.93327306   0.06970549   2.48175516
H    3.39651757   1.13103462   1.54507527
O   -1.65320970   3.71838906   1.73752072
H   -1.29722322   4.34380725   2.36867645
H   -2.60007020   3.75275564   1.87355735
O   -1.77869806   1.37009008  -1.26427394
H   -2.29499519   1.04715927  -2.00277567
H   -1.78733992   2.32209729  -1.36346793
O   -0.53391829  -2.45467481   2.40924029
H   -1.01345044  -2.97145136   3.05671443
H   -0.10357304  -1.76920182   2.92028000
O    3.59138176   2.32127678   0.09769350
H    3.81870030   3.20188657   0.39616385
H    4.30383579   2.07668323  -0.49291220
O   -2.48358501  -0.26499628  -3.37579035
H   -2.75186959  -1.12485943  -3.05192216
H   -2.93802566  -0.17139663  -4.21302070
O    1.03763944   1.92221652  -0.92484732
H    1.94352804   2.11167552  -0.68050538
H    0.64177444   2.78248175  -1.06436966
O   -1.41680125  -1.22338240   0.10665971
H   -1.94693953  -1.77951088  -0.46422237
H   -1.33223751  -1.72394870   0.91814859
O    1.20984662  -3.43711283   0.45024768
H    0.62300107  -3.36339873   1.20285009
H    1.82514542  -4.12914800   0.69258328
O   -0.85718178   3.95852176  -0.94603887
H   -0.96657980   4.79596880  -1.39653457
H   -1.15260395   4.12694994  -0.05128218
Ca  -0.19420567   0.33187413  -0.46768306
