49
Energy:  -1899.13203088
O   -0.77499246  -1.26619204   0.84242394
H   -1.72588558  -1.17652823   0.90562622
H   -0.64218264  -2.09349195   0.37964077
O    0.58387797  -0.83785701  -3.17338069
H   -0.25220990  -1.29873135  -3.24254553
H    0.77262271  -0.54789274  -4.06586486
O    0.70734443   0.12055999   2.96463852
H    0.29646413  -0.35922269   3.68381709
H    1.46462952   0.54895745   3.36367079
O   -0.38001212  -3.43898565  -0.76505259
H   -0.44433029  -4.36156851  -0.51820064
H    0.53301706  -3.32414371  -1.02853107
O    1.35254237   2.24783121   1.15770474
H    2.04273842   2.36396215   1.81067859
H    0.89588989   3.08887276   1.13901033
O    2.08186747  -2.41691835  -1.49816414
H    1.71889221  -1.92924866  -2.23752810
H    2.81709426  -2.90427170  -1.86986313
O    2.08707417  -0.54442492   0.49295398
H    2.19242746  -1.22168648  -0.17521464
H    2.96110543  -0.44035546   0.86907997
O   -1.39436319   1.48664751   1.38226411
H   -2.27967632   1.15311231   1.23663862
H   -1.48965784   2.43879028   1.35828639
O   -3.69503463  -0.50843595  -1.90977695
H   -3.09607006  -1.14093666  -2.30653399
H   -4.52298781  -0.63941256  -2.37191385
O   -3.36588639  -0.41341876   0.82398627
H   -3.62244696  -0.46297563  -0.09685717
H   -4.16145962  -0.63673840   1.30712539
O    3.01979873   1.59286330   3.27404297
H    3.72620260   1.07426400   2.88897129
H    3.43445643   2.06400831   3.99675537
O   -1.76650610  -2.26482219  -2.88014402
H   -1.41048839  -2.80471500  -2.17445358
H   -2.05728367  -2.89399054  -3.54031630
O    4.55304795  -0.12100025   1.70514120
H    4.98115903  -0.84743787   2.15817666
H    5.25272336   0.29189756   1.19897761
O    0.00092558   0.79048115  -1.04973951
H    0.29113570   0.31925183  -1.83073430
H   -0.78217767   1.26315762  -1.33179996
O   -2.35187750   1.89957243  -1.70222255
H   -2.92315886   1.14892550  -1.86469915
H   -2.70518670   2.59465784  -2.25743487
O   -0.64223131   4.19422305   1.21308100
H   -0.82584213   4.74427703   0.45153026
H   -0.76833593   4.77421171   1.96404213
Ca   0.34375302   0.46345377   0.95136374
