49
Energy:  -1902.04782055
O    1.34283351   0.53811873   4.50886839
H    0.96895776   1.10018500   5.18749220
H    1.81199368  -0.14200089   4.99214667
O   -0.61151908  -1.38102482  -3.41702793
H   -0.60091675  -1.40054645  -4.37397012
H    0.01098462  -2.05977864  -3.15623253
O   -0.23726762  -0.18965803   2.34477204
H    0.25151714  -0.00385386   3.14651895
H   -1.08592734  -0.51038395   2.64996609
O   -2.79227354  -2.77331552   0.24525440
H   -3.09416134  -2.35273959  -0.55986143
H   -3.19154959  -3.64305000   0.22595648
O    0.41367281   2.16316012   0.77668860
H    1.15478125   2.36875742   1.34653056
H    0.10669535   3.01474352   0.46555775
O    1.24061957  -2.98895252  -2.04826262
H    2.12229214  -2.66079392  -1.87163515
H    1.36791582  -3.91116554  -2.27086239
O    3.60954084  -1.77568023  -1.17233889
H    4.12673718  -1.35009486  -1.85616407
H    4.21766919  -2.38718883  -0.75704502
O    0.26465100   0.53662400  -1.67849276
H    0.00611710  -0.02856988  -2.40646800
H    0.30901868   1.41358084  -2.05955712
O   -1.97541361   0.47254690   0.13903469
H   -2.43617491   0.14579472  -0.63372910
H   -2.54672484   0.24582046   0.87281289
O   -2.90282234  -0.91540217   2.34074088
H   -3.62007038  -0.91736300   2.97460462
H   -3.04890360  -1.69889247   1.81061347
O    2.64606077   1.79679244   2.39058628
H    3.40572108   2.33857160   2.60418262
H    2.34771916   1.45829365   3.23476796
O   -0.24764688  -1.82141681  -0.07805319
H   -1.06002036  -2.30525263   0.07088996
H    0.24809928  -2.36697427  -0.68865507
O    2.07910935  -0.17460956   0.50787644
H    2.62624908   0.35648887   1.08649930
H    2.70208970  -0.68014424  -0.01419830
O    0.26625003   3.08931886  -2.49521796
H    0.02887271   3.76290596  -1.85790778
H    0.41634298   3.57087946  -3.30873093
O   -2.97380614  -1.02725361  -1.95183281
H   -3.74746617  -0.87405647  -2.49424652
H   -2.27625698  -1.22107740  -2.57800320
O   -0.39055285   4.61399213  -0.25135941
H    0.13909801   5.39913033  -0.11257969
H   -1.29508897   4.92458235  -0.21161061
Ca   0.05595617   0.18252791   0.33122554
