49
Energy:  -1899.44774947
O    2.26228739  -2.63072297   2.76484347
H    2.57947994  -2.33792233   3.61917860
H    2.86461975  -3.33041113   2.51213005
O    1.46404248   2.73114514  -1.55080871
H    1.20033613   3.46765407  -2.10239316
H    2.42039191   2.76994504  -1.53975546
O   -0.47057476  -3.12089630   2.52055258
H    0.46494815  -3.14139347   2.72206834
H   -0.83899847  -3.85191918   3.01663863
O    0.18855902   1.87366671   0.74813054
H    0.66284969   2.39386816   0.09953926
H   -0.20569555   2.52075522   1.33299945
O    4.23324398   2.71292353  -1.46960170
H    4.71010436   3.28277048  -0.86618602
H    4.70717545   2.79004230  -2.29765574
O   -1.61287202  -3.41442186  -2.31445685
H   -2.54651834  -3.61710088  -2.37325836
H   -1.17458121  -4.22373067  -2.57742501
O   -0.77606289  -2.07386890  -0.03255835
H   -1.07588345  -2.58226511  -0.78613168
H   -0.76564475  -2.70053755   0.69091225
O   -0.88657452  -0.38235330   2.31307921
H   -1.64486235   0.08349943   2.66551736
H   -0.92362178  -1.24629060   2.72353224
O   -3.21387105   0.19523865  -2.54019108
H   -3.95128932   0.44422231  -3.09737442
H   -2.56948406  -0.17241242  -3.14502985
O   -2.98222225   1.40144409   2.48505069
H   -2.53849511   2.24253692   2.59414206
H   -3.80055108   1.49684123   2.97235878
O   -0.99474698  -1.06367430  -3.66854326
H   -0.78819662  -1.16715969  -4.59744561
H   -1.19217441  -1.95021317  -3.36637924
O   -1.21091839   3.56814166   2.46061988
H   -1.56626946   4.39468154   2.13383358
H   -0.81390057   3.79353252   3.30193294
O    1.61784824  -0.69935393   0.86213152
H    2.40306969  -0.43504669   0.38275609
H    1.93508473  -1.31848581   1.51960286
O    0.27332581   0.20232640  -1.59419542
H    0.75279356   0.98018470  -1.87929012
H   -0.06249874  -0.18266987  -2.40365919
O   -2.20956899   0.47908888  -0.06662968
H   -2.83902372   0.83863876   0.55846429
H   -2.68879657   0.44018424  -0.89431271
O    3.72650781   0.11642531  -0.60594075
H    4.47616363  -0.42903589  -0.84410053
H    3.97698840   0.99983965  -0.87625616
Ca  -0.28524535  -0.10201051   0.36037280
