49
Energy:  -1899.01560765
O   -0.21413900  -3.25069796   2.24321956
H   -0.46484767  -2.77031266   3.03227404
H   -0.23098796  -4.17072100   2.50685865
O    0.74135501  -0.91110205  -1.77144767
H    1.61221122  -1.28822278  -1.89643275
H    0.23348010  -1.22710297  -2.51873499
O   -0.87519940  -1.29407629   4.11232949
H   -1.76515249  -1.31751117   4.46399148
H   -0.31301209  -1.24210070   4.88529509
O   -1.24930295  -1.69371392   0.19936108
H   -1.16068270  -2.42199251   0.81416884
H   -1.93720082  -1.97230780  -0.40513361
O    1.66557599   1.22525497  -0.01219883
H    2.58970445   1.11596092  -0.23641578
H    1.55639828   2.16930633   0.10216508
O    1.52649955  -1.55523251   0.90407412
H    2.27836652  -1.88402360   0.41130205
H    1.24241473  -2.30014767   1.43381847
O    3.30373740  -1.80337875  -1.20861278
H    3.89033420  -2.47308640  -1.56022009
H    3.85033729  -1.02122463  -1.13314534
O   -0.32915699   0.41941529   1.99095339
H   -0.54060033  -0.12081095   2.75232004
H   -0.35770427   1.31818288   2.31902916
O   -2.65716577   0.31423786  -2.90959483
H   -2.10017804  -0.21249074  -3.48279070
H   -3.19268187   0.83521985  -3.50795269
O   -3.04455243  -2.25236554  -1.77855664
H   -3.32099681  -1.39637405  -2.10580109
H   -3.83969079  -2.78491817  -1.79790987
O    1.10815373   3.86127771   0.42149326
H    0.22477143   4.04295317   0.10077284
H    1.60178428   4.65865356   0.22978391
O   -0.99048491  -1.79773719  -3.68812240
H   -1.64867325  -2.32396356  -3.23413367
H   -0.86393621  -2.24252204  -4.52620575
O    4.30742025   0.74810852  -0.73594452
H    4.99228166   0.82499689  -0.07165176
H    4.65541589   1.21648089  -1.49473185
O   -1.68022792   3.57835549   0.22122331
H   -1.62301572   3.54789732   1.17622641
H   -2.39305032   4.19181761   0.04295302
O   -1.17628377   1.07996073  -0.75195003
H   -1.72536127   0.90517901  -1.51627790
H   -1.43383420   1.95667444  -0.46686638
O   -0.37471361   3.05782071   2.67978268
H    0.33358413   3.49417961   2.20635152
H   -0.40723832   3.50291591   3.52657915
Ca   0.18347651  -0.21111945   0.09065766
