49
Energy:  -1899.10004290
O   -1.98164148  -1.39955964   1.09163533
H   -2.67075923  -1.61880413   0.46451459
H   -2.26794122  -1.80002371   1.91254509
O    0.64495221  -1.74683598   2.17534782
H    0.10774990  -2.01009318   2.92257012
H    1.16075507  -2.52512985   1.96454479
O   -0.51408683   0.94681194   2.16342906
H   -0.96326550   0.93871584   3.00865378
H   -0.04794870   1.78268834   2.14737521
O   -0.68088746  -1.75213155  -3.20116957
H   -0.26163525  -0.96626331  -3.55169851
H   -0.68010957  -2.37068500  -3.93166452
O    0.63771193   0.59729291  -3.91250809
H    0.91612827   0.70751092  -4.82166604
H    1.44003611   0.70307449  -3.40131534
O    0.31821507  -1.94315524  -0.66168991
H    0.83427229  -2.73042362  -0.48812351
H    0.05242422  -2.02747154  -1.57737426
O    1.63753602   0.41982608   0.34952701
H    2.08570351   0.52144573  -0.49014626
H    1.83503293   1.22611904   0.82609649
O    1.41804118   2.87185173   1.53128430
H    1.89759081   3.43492633   2.13891165
H    1.50063080   3.30844716   0.68346637
O   -2.93743564  -1.15133238  -1.62737603
H   -2.36932367  -1.48945541  -2.31958513
H   -3.81548381  -1.16769508  -2.00815882
O   -1.77785587   0.63067906   4.61490156
H   -2.65529282   0.99189767   4.74082758
H   -1.30711160   0.85875846   5.41653207
O    1.73241227   3.58103709  -1.14552510
H    0.90736248   3.45792699  -1.61495944
H    2.03233470   4.45032104  -1.41127648
O   -0.51226194   2.64666305  -2.45387905
H   -0.20106329   2.03984848  -3.12556598
H   -1.15084203   3.19811265  -2.90593066
O    2.66249175   1.14302988  -2.08624483
H    2.51396043   2.05836502  -1.84890145
H    3.59171740   1.10143275  -2.31216787
O    1.82794909  -3.84910673   0.75575496
H    1.53831181  -4.75555963   0.85912443
H    2.78150329  -3.90720501   0.69583146
O   -1.58091873  -2.03318781   3.80778747
H   -1.72932176  -1.20426414   4.26286322
H   -1.87176614  -2.70245853   4.42723588
O   -1.08219896   0.61528592  -0.72075387
H   -0.92357922   1.39380582  -1.25458754
H   -1.85026094   0.20451122  -1.11771332
Ca  -0.15700204  -0.50608498   0.74179780
