49
Energy:  -1900.93059243
O    1.22535752  -3.35315637  -1.62913968
H    0.94356285  -2.89318795  -2.41986888
H    1.84921003  -4.00824826  -1.94202066
O    0.34589118  -1.56917646  -3.60857360
H   -0.59178816  -1.37718633  -3.61993520
H    0.58177897  -1.66818351  -4.53095444
O   -0.68798766   1.50858119   4.30160549
H   -1.49843961   2.00758333   4.40356797
H   -0.51751362   1.14736069   5.17148491
O   -0.93977952  -3.85760523   0.10800591
H   -0.23161240  -3.99219781  -0.52176866
H   -1.49753149  -4.62938390   0.01052632
O    1.67911885   1.37883040   0.85191478
H    2.40763944   1.67800151   0.30786860
H    1.69733419   1.95552814   1.61566852
O   -1.19806657  -1.21812254  -0.55641674
H   -1.69628835  -1.13689282  -1.36968708
H   -1.27045399  -2.14335335  -0.32202420
O    1.44896470  -1.56491172   0.45546904
H    1.58346280  -2.19987250  -0.24806980
H    1.34571174  -2.09824124   1.24358724
O   -0.45079337  -0.17479942   2.11007556
H   -0.60705776   0.39732473   2.86139922
H   -0.43541859  -1.05759419   2.47976308
O   -2.83178148   1.84812655  -2.30608417
H   -3.74176352   1.99408593  -2.04751041
H   -2.65810378   2.52179151  -2.96353638
O    0.09559125  -2.84536149   2.50558463
H    0.24492276  -3.41081765   3.26333873
H   -0.34925327  -3.40709377   1.87091775
O    1.29803154   2.98964729   3.03350503
H    1.89305125   3.48796952   3.59373565
H    0.70258630   2.55403917   3.64335942
O   -2.28464715  -0.79184175  -3.02202480
H   -2.54447340   0.12597158  -2.94239530
H   -3.02562324  -1.21419390  -3.45654170
O    3.34938977   1.81094824  -1.35018495
H    3.45362939   2.67954775  -1.73864452
H    4.22911069   1.43400675  -1.36561424
O    1.03801193   0.27647459  -1.71408912
H    1.84359521   0.76238419  -1.89060903
H    0.91572942  -0.27442358  -2.48725796
O   -1.04613108   1.64721940  -0.18655683
H   -1.68719809   1.79655680  -0.88151242
H   -1.01744110   2.47387225   0.29516280
O   -0.72399449   3.83825596   1.33124900
H   -1.01399915   4.74968894   1.36891946
H   -0.00146142   3.79024431   1.95724636
Ca   0.22980229   0.08323873   0.18043228
