49
Energy:  -1899.03997232
O   -2.79885790  -2.91643896   0.71975572
H   -3.56273967  -3.00799397   0.15025228
H   -2.99561692  -3.46936683   1.47592271
O    3.77293393  -2.61556613  -1.66302391
H    3.93156552  -3.27044121  -2.34288161
H    4.63329713  -2.23139652  -1.49443946
O    1.36936207   0.76954973   3.22809868
H    1.62367812   1.57452667   2.77691433
H    1.90000492   0.76303637   4.02472129
O    0.30205016  -0.63113761  -4.36439568
H    0.15689507  -1.35551277  -4.97303554
H    0.47286179   0.12432675  -4.92682687
O    0.36617994   1.38685371  -0.44059715
H   -0.27915663   2.03678459  -0.71873813
H    0.96552340   1.87143324   0.12703121
O   -0.24249937  -2.69262971  -0.41168981
H    0.43737800  -3.30619306  -0.13323221
H   -1.06029202  -3.08655770  -0.10793372
O    1.44352680  -0.86932683   1.03514991
H    1.90658017  -1.69720533   1.16333183
H    1.52875023  -0.41445215   1.87303883
O   -0.99140356   3.75175578   1.84545637
H   -1.33110947   4.48677997   2.35591810
H   -1.26783119   2.97441099   2.33079612
O   -1.25122353  -0.43891879  -2.03779759
H   -1.03198623  -0.47671305  -2.96878548
H   -2.04546519   0.09396228  -1.99972135
O   -1.35328160   1.25862774   3.03000118
H   -1.87204910   1.18188689   3.83076518
H   -0.45587793   1.07340904   3.30675472
O   -1.55075017   3.29897861  -0.82734888
H   -1.55370420   4.11194261  -1.33263360
H   -1.49213231   3.58349892   0.08470594
O    1.55605156  -0.95354132  -1.89768086
H    1.35852454  -0.85067319  -2.82861216
H    2.37000229  -1.45690633  -1.87924955
O    1.61722300   2.89136001   1.49677184
H    0.80976714   3.38008949   1.65611540
H    2.29699223   3.56287971   1.44014209
O    2.28148068  -3.46047129   0.53989498
H    2.61346243  -4.20352052   1.04377771
H    2.91689408  -3.34671574  -0.16688740
O   -3.26957961   1.26318871  -1.62523888
H   -2.88043355   2.09303640  -1.34928600
H   -4.16268001   1.49104991  -1.88346901
O   -1.44994102  -0.46028601   0.89058219
H   -1.56658187   0.12775453   1.63679603
H   -2.12133835  -1.13244195   1.00747473
Ca   0.07226522  -0.65251063  -0.48891330
