49
Energy:  -1899.45588167
O   -2.58000114  -3.06388461   0.09844104
H   -3.21792667  -2.35097605   0.06612620
H   -3.05925161  -3.79749130   0.48363197
O    1.09380293  -1.78525772  -1.44498107
H    0.58441425  -2.46672725  -1.88356320
H    1.92985524  -2.20436615  -1.24102885
O    1.67788626   1.18740273   3.09859728
H    1.56040193   2.05876353   2.72023285
H    2.29658240   1.31913573   3.81699365
O   -1.20084127  -3.05498543  -2.35739983
H   -1.43508789  -3.65038414  -3.06934137
H   -1.74160156  -3.33808061  -1.62006186
O   -0.55873095   1.41309186   0.55870054
H   -0.10109605   2.19792068   0.86010702
H   -1.36883567   1.39705761   1.06831323
O    3.55389959  -2.22611787  -0.14271358
H    3.70489045  -2.99618245   0.40540517
H    4.37701330  -2.10295406  -0.61552046
O   -0.66278385  -0.33355329   3.46018830
H   -0.72834798  -0.74442607   4.32223050
H    0.11852465   0.21666700   3.51538350
O    1.10383482   3.38595689   1.44630912
H    1.60366422   3.56921131   0.65080912
H    0.92070233   4.24851617   1.81871458
O    2.27017224   3.55877400  -1.08770180
H    1.96042303   4.30834069  -1.59606886
H    3.22460071   3.61958038  -1.12771084
O   -2.75800412   0.95058866   2.10954230
H   -2.22390638   0.51760124   2.77549526
H   -3.33666354   1.52988108   2.60532996
O    1.07965247   1.15403937  -1.81842842
H    1.53132267   1.98525183  -1.67244304
H    0.97934958   1.09908860  -2.76877131
O    0.70598334   0.87325296  -4.47355004
H   -0.00331366   1.24989527  -4.99438608
H    1.35213820   0.58728480  -5.11925737
O    1.97520818  -0.06040225   0.67737907
H    2.69121236  -0.69133778   0.60328313
H    2.06353925   0.30031983   1.55959733
O   -0.54795823  -1.43262095   0.94315639
H   -0.60647229  -1.24307606   1.87957547
H   -1.20955605  -2.10792171   0.79319285
O   -1.44705002  -0.41094135  -1.58680214
H   -1.51290761  -1.18944629  -2.13981631
H   -2.32158291  -0.30857277  -1.21137606
O   -3.73440823  -0.50725001  -0.06271212
H   -3.58614161  -0.01602587   0.74533967
H   -4.63801604  -0.30424262  -0.30460627
Ca   0.26782534  -0.16721055  -0.48057891
