49
Energy:  -1899.04467601
O    1.51054356   0.62238820  -1.04903010
H    1.78441166   0.66121416  -1.96539284
H    2.21881684   1.05097040  -0.56851152
O    0.28697943   1.42839286   1.39957497
H   -0.28742318   1.93883169   1.97031632
H    1.15468798   1.81171953   1.52753746
O   -1.18063268   1.73769661  -1.10910801
H   -1.20211596   1.71715823  -2.06584648
H   -1.77140492   2.45223277  -0.87107842
O    4.80060148   0.45462843   2.29715434
H    5.71636556   0.47651823   2.01943354
H    4.83880663   0.48887116   3.25297840
O   -2.31772744   2.24934571   2.16953571
H   -2.62437880   2.86571348   1.50448867
H   -2.72801521   2.54816610   2.98107879
O    1.96983942   0.79534882  -3.79012254
H    2.42231637   1.55382750  -4.15918426
H    2.35896763   0.04322233  -4.23634763
O   -1.36094367  -3.64750417  -1.37797899
H   -1.15055376  -3.91851508  -0.48437896
H   -1.46263107  -4.46819995  -1.86000591
O   -0.82233595   0.89445168  -3.72467649
H   -1.27286758   1.02812321  -4.55857398
H    0.10807245   0.91451094  -3.94866242
O   -3.36229391  -2.50784664   1.67245437
H   -3.98545035  -2.87771031   1.04706747
H   -3.80990180  -2.56048026   2.51691203
O   -0.87250456  -3.71093042   1.36036558
H   -0.69172439  -4.46189774   1.92569599
H   -1.75694075  -3.43599823   1.60206116
O    2.96908150   2.00482217   0.90362322
H    3.36147517   2.87320204   0.81320499
H    3.61588985   1.49926794   1.39584850
O   -2.90020929   3.69889431  -0.14260095
H   -2.63727791   4.61863944  -0.17677457
H   -3.81425566   3.69987800  -0.42676657
O    0.58422202  -1.44991852   0.82126480
H    0.19358595  -2.28339236   1.08386082
H    1.52027023  -1.56046134   0.98807572
O   -0.83664268  -1.03496822  -1.69028176
H   -1.03658563  -1.97077038  -1.71328176
H   -0.99963690  -0.73270849  -2.58376024
O   -2.04027413  -0.19177268   0.90420926
H   -2.37383411   0.51686813   1.45447990
H   -2.55371673  -0.95750436   1.16162633
O    3.24970686  -1.57438425   1.19400352
H    3.78168510  -2.36536438   1.10693215
H    3.82752677  -0.94244007   1.62179149
Ca  -0.27683616   0.15137743  -0.11839665
