49
Energy:  -1899.59753733
O   -0.70307122  -4.24352746   1.77489810
H   -0.59691689  -4.53261068   2.68120599
H   -0.68667876  -5.05143373   1.26181857
O    1.18009499   0.46169668  -3.93476344
H    0.38864253   0.49837900  -4.47187539
H    1.88260267   0.73780481  -4.52338820
O   -1.81668355   1.75163274   3.65590742
H   -2.53343470   2.36785367   3.50500546
H   -1.92814130   1.47169613   4.56444719
O    0.73623120  -2.04759502   0.86268486
H    0.32787418  -2.84266133   1.20524281
H    1.63444819  -2.30794284   0.65858413
O   -0.48544395   3.84193389   0.53623574
H   -0.50319187   4.78615049   0.38012079
H   -0.04184267   3.74633161   1.37903462
O    1.39785244  -0.44950165  -1.41324815
H    1.37442767  -0.14005129  -2.31874449
H    2.18073714  -0.99833573  -1.36737280
O    3.30869975  -2.03677397  -0.13542831
H    3.96464562  -2.68640772  -0.38829753
H    3.80384733  -1.36655345   0.33559735
O   -1.31205130  -0.12854932   1.67592396
H   -1.53256095   0.49227063   2.37032293
H   -1.96846405  -0.82066940   1.75544720
O   -2.37007665   0.59237034  -2.78292033
H   -2.00387256   0.58703961  -3.66728338
H   -3.28245517   0.85596716  -2.90256140
O   -2.74884432  -2.44662923   1.18563415
H   -3.64572241  -2.74293876   1.34068967
H   -2.20245260  -3.18653892   1.45062770
O    1.42931185   0.78385667   1.23255147
H    1.25376616   1.51108277   1.82967605
H    2.37877178   0.66777098   1.26835368
O   -1.41164769  -1.25985059  -0.95955601
H   -2.07266451  -1.80365188  -0.53110675
H   -1.87616603  -0.84585780  -1.68692423
O    4.15580482   0.23254030   1.24892246
H    4.73935420   0.82730897   0.77780444
H    4.58895366   0.08765412   2.09012513
O   -0.68791471   1.47977254  -0.71804591
H   -0.65496614   2.37906572  -0.39182817
H   -1.26591502   1.52186015  -1.47987012
O   -1.23371795   0.58669736  -5.31079892
H   -1.40337819  -0.14493056  -5.90423623
H   -1.34993837   1.36714752  -5.85266811
O    0.62751485   2.82059916   2.87963327
H   -0.18806829   2.54713233   3.29948071
H    1.08230992   3.33185515   3.54896922
Ca   0.03871202  -0.24700144   0.10882955
