49
Energy:  -1899.62876947
O   -2.41737515  -2.74480378   1.03953316
H   -2.45656791  -3.08011379   0.14384183
H   -2.65212420  -3.49420619   1.58681807
O    1.66467508   0.20843315  -1.05308655
H    1.61124971  -0.26017607  -1.88602291
H    2.58625811   0.45510718  -0.97518609
O   -0.93831674   0.78830821   2.07096556
H   -1.85264924   0.50660365   2.10046934
H   -0.66074940   0.79878990   2.98697776
O   -1.97236477  -3.51165357  -1.58769434
H   -2.34826414  -4.30044189  -1.97851976
H   -1.03468895  -3.69542028  -1.53089904
O    0.59684690   2.55951502   0.30293009
H    1.36964271   3.12067184   0.23873117
H   -0.12945058   3.11886436   0.02751743
O    0.80358211  -3.36686605  -1.32369735
H    1.04158152  -2.83958684  -2.08630129
H    1.43017754  -4.09046644  -1.32723043
O    1.87792671   0.40755213   1.81391716
H    1.82278118   0.45974346   2.76810105
H    2.79108348   0.61411473   1.61464738
O    0.69623673   0.66573604   4.35789408
H    0.67138063  -0.08464590   4.95164567
H    0.78616481   1.42479465   4.93406664
O   -1.71216196  -1.09636576  -2.88524003
H   -1.92878244  -1.94248099  -2.49358146
H   -2.35138812  -0.98711578  -3.58928989
O   -3.38664910  -0.25605808   1.81314551
H   -3.27780295  -1.17008324   1.55057671
H   -4.29029461  -0.20167472   2.12411029
O    3.00472936   3.94062290   0.08470611
H    3.20073447   4.43406873  -0.71173915
H    3.27573289   4.51862953   0.79793628
O    1.04010024  -1.35937897  -3.21816340
H    1.37714304  -1.40794941  -4.11274426
H    0.09514266  -1.24887009  -3.32340023
O    3.94061994   1.30416601   0.13662594
H    3.83404391   2.25458030   0.09680024
H    4.88589216   1.16595415   0.07671132
O   -0.02195003  -1.52230914   0.54251992
H    0.40137152  -2.18787287   0.00025095
H   -0.82357219  -1.94172363   0.85513028
O   -1.23192715   0.70271654  -0.86717039
H   -1.52679031   0.13850109  -1.58197700
H   -1.71669412   1.51888560  -0.99005609
O   -1.87164849   3.43027233  -0.68237030
H   -2.56348955   3.71690014  -0.08618887
H   -1.96053750   4.00134908  -1.44539188
Ca   0.31770347   0.51159324   0.47588373
