49
Energy:  -1900.66889765
O    0.52743476  -3.46473090  -2.65846323
H    1.06079997  -4.25408738  -2.56535183
H    0.41679312  -3.35994450  -3.60345534
O   -1.78685360  -3.33366867  -1.10593970
H   -2.46840496  -3.99217511  -1.24043451
H   -1.09563118  -3.57423975  -1.72284243
O    0.03342802  -0.12994782   3.88287760
H    0.14012105   0.23514209   4.76126123
H   -0.20004844  -1.04640290   4.03062975
O   -0.64670925  -2.82601741   3.71255694
H   -1.48571559  -3.08324311   4.09483322
H   -0.02060416  -3.46264285   4.05742259
O    0.38289905   1.55787502  -0.62000764
H   -0.18131100   2.31358253  -0.45628522
H    1.19360993   1.93354929  -0.96329842
O    1.22236358  -1.23185597  -1.15192657
H    2.13448270  -1.00728409  -1.33587776
H    1.04358796  -1.98731742  -1.71188114
O    3.78283268  -0.35261834  -1.49920336
H    4.53756889  -0.74428124  -1.93875459
H    4.11388390  -0.09312209  -0.63937859
O   -1.26165780   0.67307252   1.54043466
H   -1.11184765   0.60653919   2.48349461
H   -1.57159866   1.56916032   1.40930432
O   -0.53709237  -2.11432482   1.02927556
H   -1.01036861  -2.75697092   0.50083690
H   -0.58526011  -2.45567385   1.92224396
O   -3.05352227   1.35800969  -2.34927585
H   -3.39566475   2.15962963  -1.95357919
H   -3.45158351   1.33104079  -3.21936307
O    1.50306268  -0.07345721   1.52731918
H    2.38429824   0.29218463   1.45010658
H    1.31721003  -0.05553696   2.46613200
O   -1.60680878  -0.54727044  -1.12203143
H   -2.15002783   0.08624545  -1.59086246
H   -2.00093938  -1.39620704  -1.32252973
O    3.91801011   1.05832227   0.92169608
H    3.73376923   1.80196486   0.34786436
H    4.66238105   1.34297114   1.45190243
O    2.88535024   2.32558975  -1.40172359
H    3.27437955   1.54852452  -1.80304350
H    3.18691000   3.05314439  -1.94574363
O   -3.84387333   3.68456239  -1.04992587
H   -3.86440374   4.47039315  -1.59607637
H   -4.70863007   3.65408688  -0.64065961
O   -1.57728438   3.21923623   0.47867142
H   -2.36489437   3.39694133  -0.03545235
H   -1.40320968   4.03853979   0.94199800
Ca  -0.04436472  -0.29282154   0.17952406
