49
Energy:  -1899.67913778
O    0.05294727  -1.77304727   0.63519014
H   -0.77399672  -2.20968276   0.43087437
H    0.72648373  -2.37029917   0.30981242
O    0.75237656  -1.71771609  -2.99409991
H   -0.12793361  -2.07429570  -3.11299831
H    1.11111222  -1.66376868  -3.87989348
O    0.96229283   0.31156281   2.60019652
H    0.34620240   0.31061040   3.33276974
H    1.65555659   0.91371504   2.87043697
O   -2.36081388  -2.75891567  -0.23324060
H   -3.00448939  -2.06259190  -0.10267681
H   -2.78294149  -3.54430359   0.11490585
O    0.76689537   2.28251033   0.54794627
H    1.42276832   2.68687378   1.11588352
H    0.41959915   3.00751661   0.02834732
O    2.19019313  -2.71750169  -0.83537710
H    1.81988243  -2.59213249  -1.70909581
H    2.73599959  -3.49969274  -0.91602649
O    2.34392103  -0.13486812   0.06803097
H    2.57792806  -0.99755587  -0.27437580
H    3.18367661   0.28725556   0.24928772
O   -1.55151034   0.54599061   1.26696637
H   -2.39210808   0.31776738   0.87005146
H   -1.74086452   0.62376101   2.20202177
O   -2.70576853   0.22973032  -2.51165359
H   -2.55093628  -0.64526961  -2.86751021
H   -3.09087319   0.71961811  -3.23824578
O   -3.75577508  -0.37729563  -0.04790395
H   -3.60561534  -0.08326026  -0.94636213
H   -4.68580711  -0.21169952   0.10653117
O    2.79746615   2.38471727   2.46119590
H    3.58621834   2.08802388   2.00724121
H    3.11184084   3.03724283   3.08698404
O   -1.92648151  -2.39913383  -2.96558277
H   -2.11391024  -2.70347046  -2.07761794
H   -2.34196178  -3.04744432  -3.53417885
O    4.68120039   1.16335846   0.81727217
H    5.36362937   0.65666869   1.25748577
H    5.15519773   1.71272510   0.19296882
O   -0.20589675   0.26153450  -1.35767068
H    0.22362485  -0.30718311  -1.99665685
H   -1.05276762   0.46939366  -1.75243155
O   -0.25700220   4.29619437  -0.93162030
H   -0.87179182   4.96194407  -0.62333001
H    0.11782673   4.66719038  -1.73043010
O   -1.41149298   0.53368062   4.05257458
H   -1.61632453   1.31113443   4.57203724
H   -1.72658805  -0.19871092   4.58224389
Ca   0.38958758   0.26812150   0.61730845
