49
Energy:  -1899.67468089
O   -0.25807742  -2.36232228   0.34296187
H   -0.85458602  -2.89992493   0.86391553
H    0.39766743  -2.97865578   0.01682760
O   -0.04578100  -0.54435913  -1.95874038
H   -0.16987260   0.22646824  -2.51250773
H    0.25663514  -1.22534743  -2.55959914
O    0.11246762  -0.07595168   2.13793956
H   -0.58908794  -0.24391478   2.76709776
H    0.89027470   0.06495126   2.67774912
O   -2.08028760  -3.64370165   2.01395554
H   -1.78229488  -4.25658688   2.68611913
H   -2.84069591  -4.07099329   1.61970575
O    1.44839617   3.37568249   1.52732385
H    2.27389259   3.24063830   1.99267380
H    1.19521597   4.27318097   1.74325927
O    2.02835266  -3.26089768  -0.94483759
H    2.62045124  -4.01124673  -0.89357917
H    1.80670253  -3.19309897  -1.87354982
O    2.03359868  -0.66620888   0.11263979
H    2.40892997  -1.48600095  -0.20876218
H    2.57027353  -0.43785098   0.87162900
O   -2.03186635  -0.07542630   0.21257628
H   -2.66671032   0.36265074  -0.35425129
H   -2.51183581  -0.24704847   1.02276577
O   -2.85605645   2.96469954  -3.46790081
H   -3.22592192   2.79621439  -4.33452884
H   -3.06621787   3.88171556  -3.29141953
O   -3.68959626   1.19618051  -1.48709153
H   -3.46779604   1.82542667  -2.17344842
H   -4.64607796   1.15990488  -1.49475284
O    2.88999181   0.12600167   2.63339077
H    3.22601842   1.01728802   2.72787145
H    3.42187717  -0.39594376   3.23414263
O    1.03426344  -2.61692558  -3.46889159
H    1.68403505  -2.41626233  -4.14251088
H    0.44138340  -3.24203658  -3.88597832
O    3.78968987   2.73859330   2.89039954
H    4.60148280   3.00521031   2.45896074
H    3.85934761   3.09683978   3.77529451
O    0.28107397   1.68463915  -0.21098360
H    0.67074240   2.34529203   0.36166650
H    0.15085067   2.13643516  -1.04474262
O   -2.46910003  -0.98329279   2.80913211
H   -3.11586788  -0.81787345   3.49510560
H   -2.47216455  -1.93432694   2.70070467
O   -0.29895246   2.04588570  -2.91935741
H   -1.17186755   2.37608503  -3.13200618
H    0.28142711   2.48332207  -3.54228663
Ca  -0.00364568  -0.32026431   0.09521633
