49
Energy:  -1898.98354258
O   -1.68449309  -2.81400643   2.63426794
H   -1.71620271  -3.59852957   3.18176205
H   -1.65284508  -2.08783188   3.25708474
O   -2.00305893  -0.10009634   3.38947939
H   -2.80950165  -0.22939543   2.89031636
H   -2.29152677   0.28968100   4.21476223
O   -3.62963928  -1.22723971   1.37502216
H   -4.56308030  -1.43905023   1.36753748
H   -3.20768999  -2.01438886   1.71938659
O    0.18006232   1.69594018  -1.21809144
H    0.64459795   2.51285739  -1.03619930
H   -0.05496334   1.75457777  -2.14413486
O    1.68568036   3.84209878  -0.45855588
H    1.87367150   4.68873232  -0.86365195
H    2.54701838   3.45946993  -0.29145167
O    2.08729236  -0.18170473  -0.03147287
H    2.64453730   0.53366682   0.27504544
H    2.69336551  -0.90369718  -0.19770794
O    3.42152701   2.01331349   0.88646084
H    4.32453943   2.12284264   1.18446048
H    2.88860531   2.35048526   1.60655910
O    1.17797571   3.06590596   2.19285273
H    1.08707264   3.66291099   2.93551918
H    1.17084566   3.63626761   1.42417296
O    3.68851808  -2.39024849  -0.58102106
H    4.14823908  -2.80722819   0.14768765
H    4.34973760  -2.31215261  -1.26871404
O   -0.17444800   0.77814332   1.56687870
H    0.24927319   1.57833312   1.87734365
H   -0.76980161   0.53168569   2.27472372
O   -0.73446265   1.06023537  -3.73996860
H   -0.60050305   1.38793640  -4.62929346
H   -1.68531014   1.04305523  -3.63122245
O    0.23373705  -1.02921113  -2.11436468
H    0.52116574  -1.92304178  -2.30059937
H    0.03599261  -0.65675698  -2.97367073
O   -2.02161304  -0.09666816  -0.52592700
H   -2.53752574   0.22108503  -1.26693904
H   -2.66739070  -0.47170290   0.07286512
O   -0.10284211  -2.00855454   0.56360058
H    0.26612646  -2.75642062   0.09371723
H   -0.58606936  -2.39774728   1.29247114
O   -3.34591041   0.82506889  -2.79274955
H   -3.92014717   0.22031897  -3.26260221
H   -3.85127838   1.63550794  -2.72931760
O    1.24615575  -3.52439515  -1.30903962
H    2.16821755  -3.34339357  -1.12663262
H    1.23427987  -4.43453710  -1.60523623
Ca   0.03237494  -0.12656414  -0.26689692
