234
 energy: -339.288362568838 gnorm: 0.001820806729 xtb: 6.3.3 (5b13467)
C        11.97867684229676   10.13908831951686   11.21013032931904
H        12.24404921941008   10.93029969609478   10.50917685507701
H        10.89340786534486   10.08555539496745   11.30015442929719
H        12.35409874310022    9.18125806524472   10.84967897077653
C        12.53586598237589   10.41844800487745   12.49155987163467
N        12.96756598467961   10.64723858547200   13.52827430911107
C         7.81823453779159   12.66664088217451    8.65067596708144
H         8.20453811661864   12.64275089496046    7.63096162182702
H         7.18759337170170   13.54877811387423    8.77543988611948
H         7.24078555422719   11.76334668669787    8.84483031139776
C         8.91139459239363   12.75202451192610    9.55879827484078
N         9.79460836140000   12.83347240927689   10.28512482770328
C         5.89214438300427    6.06285536624297    3.25914246273074
H         5.40404509069271    6.12814266018643    4.22999492977875
H         6.60247706335343    5.23550828130544    3.25231269108913
H         5.14305393726865    5.89485085607375    2.48979264342138
C         6.57210875861542    7.28839729555498    2.99129700697024
N         7.11855293222895    8.27099326450890    2.77762533098089
C         7.65867979902282    8.13848796679843   13.07867566667161
H         8.44389909290845    7.56454763061861   13.56930948236183
H         6.89912642329970    7.45849450134652   12.69278935537810
H         7.21909670901419    8.83071460312940   13.79477997935503
C         8.23262274770148    8.87810661363548   12.00574273874442
N         8.68288612664672    9.46950417314340   11.13302588581558
C         1.71408284521784    6.80624521103310    4.91705328237671
H         1.93803514340785    5.90219625960951    4.34982659946290
H         1.07127269522217    6.55550845620011    5.75961066998625
H         2.64281392368465    7.24200359151308    5.28489174224620
C         1.05191303289404    7.74526260288755    4.06853040632733
N         0.52497710502403    8.49198697109121    3.37866538993183
C         8.65674580076408   10.91750935320177    3.21267191708758
H         7.74690122238992   10.48876456768640    2.79547194911608
H         8.60528574132570   10.87622972407800    4.30195214462733
H         9.51086426177224   10.33408601097111    2.86937637650860
C         8.81763939276576   12.26729502727960    2.79409785211785
N         8.96734007341617   13.35506517170774    2.46309055067455
C         4.49147426982494    3.14829751778249    1.55958744519435
H         4.71975685276296    3.82652995688760    0.73570209517018
H         4.06111634883064    2.22660168315017    1.17199695796626
H         5.41611426866794    2.92837706247199    2.09792693617474
C         3.57444303688248    3.77892329855274    2.44833843489167
N         2.85194855049358    4.30880785431453    3.16366024274710
C         5.19371187283051   16.44044460542222   11.14063158767313
H         4.15486760034379   16.12399045718816   11.22839846828531
H         5.25152963492727   17.52711740417244   11.10924318587661
H         5.76089988568911   16.06128748145400   11.99249666964820
C         5.74063538148937   15.88651547243223    9.94354686315031
N         6.17574527919445   15.43614462694176    8.98481667150990
C         4.95311586248195    3.75530298099644   10.47281687869914
H         5.67535051145291    3.50962790009505    9.69258904909953
H         3.97991012748450    3.94207009521844   10.02002105904993
H         4.87698114648671    2.92756656787875   11.17529788867989
C         5.38897211803642    4.92474547241561   11.15416844161714
N         5.73922459242491    5.88363725699926   11.67630267901747
C        12.04251702433718   14.26454428755083    2.45463002784262
H        12.40824224836618   15.03043570715918    1.77256751841450
H        10.98066543044950   14.08201874514110    2.27177587356867
H        12.58911277323936   13.33598516900237    2.29217289349540
C        12.21355120911164   14.69453851196148    3.80501523502056
N        12.33680013258383   15.04082397731266    4.88964913054159
C         9.81307704395186    7.52054719942206    4.71807773840436
H        10.79162267442080    7.99922369185720    4.75009410533161
H         9.68840741121760    6.94181246129358    5.63298190548591
H         9.02996655190217    8.27484820453546    4.65733020718785
C         9.73492646011051    6.66789279980397    3.58185694545562
N         9.68658911434421    5.98845049744475    2.65957755741092
C         4.13249466671633    8.73339248268107   10.96180636363124
H         3.93306897855898    9.27082525247149   11.89192998684304
H         4.70441597784026    7.83017901108537   11.17755111946461
H         3.18855609884033    8.45839971516472   10.49325485773349
C         4.87060387155420    9.58148719827455   10.08838318722195
N         5.47048345583275   10.26838304729504    9.39359303077440
C        12.01215436680229   14.47320172413332    8.07353344759445
H        12.66822525230545   15.13176789083958    8.64088875407321
H        10.98200405485388   14.61089399169127    8.39970966378387
H        12.09106017391443   14.70179349980298    7.00889476329701
C        12.38607555362823   13.11631319426733    8.29171953407453
N        12.68479350586861   12.02193390831712    8.45454581714216
C         3.04313675122873    7.37659834025366    1.10255847220608
H         2.27701373164722    7.81312165172741    0.46360251105541
H         2.60098371487260    6.57329277982168    1.69148841055333
H         3.85176996572531    6.97564229070826    0.48823807206721
C         3.56142847677494    8.38212561273742    1.97619507686805
N         3.97906973329045    9.19010897409872    2.67105398338561
C         9.89414514113717    2.84669078549938    2.90239661392296
H        10.18771322265205    1.82481229225734    3.14353278739915
H        10.34925042058618    3.52178209882255    3.62975947924632
H        10.24054366482432    3.10807988279154    1.90447754088563
C         8.48155276775721    2.99269304804020    2.97215953057895
N         7.34416428503975    3.12329072781440    3.04211050589222
C         9.41741519767368    5.15888843714794   11.35415002849376
H         8.48148152372694    4.97487451391138   11.88080949185068
H         9.23144668398225    5.17864599799219   10.28045829738547
H         9.84083165068456    6.11044182136037   11.67543655383484
C        10.34638935125910    4.11411283961320   11.65136350166696
N        11.10489682689367    3.28961180247916   11.88607745420036
C         1.72452623808601   11.43714216287641    3.37670187466387
H         1.23851332877458   12.35581666349006    3.05239344389685
H         1.03506302552345   10.59562038805793    3.28728886335089
H         2.59910273804417   11.23520426263194    2.75840506020007
C         2.14173946776502   11.55660198713576    4.73550398846116
N         2.49040869151683   11.65366239761034    5.82195769666289
C         6.55706302917974   12.07774278807519   12.01241778751490
H         6.21758231871706   11.38521337020092   12.78115510233435
H         7.50342698689465   11.72152120998589   11.60865735340679
H         5.81386301575937   12.12436647848841   11.21713874187775
C         6.72310371032891   13.37476506952959   12.58289809134980
N         6.83185412487447   14.41834935375730   13.04168210016136
C         8.80626064462631   15.60461909730690    4.73863169507142
H         8.57584575189454   15.34713440015061    3.70443405578863
H         9.63835194423277   16.30694774373961    4.76616898004178
H         7.93232893836282   16.04684214731244    5.21494292182979
C         9.17637886615172   14.40908270154508    5.42687338762968
N         9.47036407495482   13.44813283480295    5.97519761252663
C         4.09390620756211   12.93467972105458    8.22185216513546
H         3.26455029691523   12.71698211085256    7.54897908477498
H         4.64669544283961   12.01301585240625    8.41059363216035
H         4.75365288713823   13.67243560682914    7.76717480734686
C         3.61116174876408   13.44367802696370    9.45982093591670
N         3.24220708164954   13.85061769052913   10.46612169374866
C         7.46912845798039    4.61682659563593    6.16129273327356
H         6.90800785936768    3.86879008350723    5.60223335559241
H         8.48240226457053    4.68420058306984    5.76056624324433
H         6.97913709809721    5.58674772065847    6.08059470367041
C         7.54356398777752    4.23732164482273    7.53262750084972
N         7.59927957880525    3.94113667578290    8.63813407311915
C        13.38290904553996    5.57309162386570   12.30397416019228
H        13.11470594043982    4.54802478162079   12.04870949508419
H        12.70483182423983    5.92943847319485   13.08125086894737
H        14.41096784809303    5.61407137424001   12.65980696477497
C        13.23075186354832    6.40977515542287   11.16110575023461
N        13.10663372867617    7.09691206121712   10.25290741679391
C        12.15052459712846    5.00243337586406    7.55441707137128
H        11.74793581374495    5.89115645183253    8.03766870426229
H        13.14443100447762    5.21133098864201    7.16139251906449
H        12.18748171082809    4.18520505069320    8.27399799113729
C        11.29182276636805    4.63256369278903    6.48069230862502
N        10.59976645024538    4.33615181291205    5.61664774726821
C         4.76062423235426    3.52935374487035   14.52617067829542
H         4.64287647474852    3.20075239454082   15.55744288629613
H         4.67923786601467    4.61430777689479   14.47230273148573
H         5.73885703708951    3.22150916837682   14.14996178018912
C         3.75360471418728    2.93465024719555   13.70838056827279
N         2.96102833067037    2.45736168628272   13.03334765630040
C         8.13859298168184    6.56790754647468   -0.06270258859144
H         8.62808334890076    6.24350834078358    0.85956458983046
H         8.17768382177203    7.65536695700684   -0.11209069181253
H         8.65250719078118    6.13991164880813   -0.92224131575007
C         6.77761551501343    6.14539802728881   -0.05340946665647
N         5.68279384976521    5.80672922622400   -0.04683643327590
C         3.21504466677611   13.21297617831616   13.54988159801230
H         4.05262554404969   13.73821210426144   14.00824523571626
H         2.30712978698200   13.39251819991141   14.12322270262062
H         3.08190134765511   13.56921497311436   12.52540435241648
C         3.49509407973398   11.81417901678625   13.50615607559321
N         3.73464380238805   10.69544589267345   13.45344078860930
C        14.02226929342512    9.05351986285263    7.91018186941357
H        13.70332775198346   10.06050975833561    8.18311551352818
H        15.09495968310130    9.04875610312639    7.72249157213012
H        13.79175636339616    8.36367559873157    8.72333529645249
C        13.32791845369009    8.64507291867066    6.73547549060244
N        12.75417178102770    8.33663061880815    5.79242900603699
C        11.18536725467418    8.95631999435320   15.54866428856156
H        12.01822894414604    9.61395160229531   15.29481165092414
H        11.37032250104944    8.46592148449755   16.50288514307057
H        10.27051889459241    9.54795585411169   15.60040924617800
C        11.04421862066443    7.98255516006197   14.51614793506507
N        10.91949392546216    7.20246499872173   13.68639635483414
C        13.24412836416111    6.69951111266233    3.05568478250608
H        13.97568060265191    6.75805062455735    2.25107185258254
H        13.15031926117309    7.67385513002886    3.53500858592490
H        12.27647189101345    6.40264005633781    2.65233724985020
C        13.66664337741151    5.74108075911895    4.02725915989817
N        14.01095108967977    4.97392779921172    4.80415715564227
C        11.86810979055937   11.46619129851329    5.14377770688399
H        11.66808100190898   10.62093603638877    5.79891990757798
H        11.01656271644831   12.14746799517531    5.16766023031956
H        12.75500810064705   11.99172506808071    5.49474829010243
C        12.08613709369590   10.98146756146577    3.81843443533290
N        12.25842930587390   10.59060347072572    2.75591804279814
C        13.55074408639943    1.94659086669014    5.93868398454079
H        13.23331422899055    2.00475166899233    6.97937912110276
H        13.72132258376077    2.95190611592074    5.54987266131908
H        14.46895428614514    1.36573725962029    5.86468234225613
C        12.51782065638119    1.31643761491211    5.17978124207298
N        11.69056765167623    0.80711212884191    4.57368989383077
C         7.21705944653375    7.35240975982927    8.94004058643125
H         6.44163368292570    7.27955067246685    8.17769536307287
H         7.26276533859262    8.37692694817207    9.30643006409507
H         6.98036236163119    6.68115398162136    9.76396761073505
C         8.47861128584910    7.00012973099758    8.37759657613084
N         9.49616653864670    6.72939514863440    7.92719311436782
C         3.67521063088771    4.26942397628266    6.47441020033879
H         2.77515295143014    4.34534671167421    7.08650435749163
H         3.39636768497909    4.10954965477742    5.43277554994024
H         4.24854130422637    5.19194386278976    6.56334269902940
C         4.45229009026435    3.16549520362129    6.93932215291295
N         5.07854626733361    2.28622673387202    7.32339472214121
C         8.35380961316673    1.58646549068508   10.70545388392144
H         7.92890152695663    0.61735887515976   10.44761965081890
H         9.42558304042839    1.48878340365945   10.87341193079661
H         8.18874403361181    2.29104454836400    9.88803437954810
C         7.72542520429633    2.09173443570930   11.88158942996942
N         7.20134941608291    2.50713342510820   12.81161034333628
C         5.35409945864852    9.76607246070450    5.57482724904673
H         5.21101699755767    9.82631329265849    4.49536032552262
H         6.34906957207877   10.12454076810565    5.84234236732920
H         4.59087809628339   10.36336908338658    6.07282041580120
C         5.23951850086138    8.40802857179523    5.96778310824494
N         5.15696393251307    7.30400387192851    6.27387623416660
C        10.16393404748762   12.85291998740566   13.42329995714258
H         9.75503722055885   13.78768103863899   13.80474657258262
H        10.10849219245832   12.85598678235071   12.33196844984113
H        11.20395354275435   12.74419346805637   13.72969223116998
C         9.40578748313082   11.75767201960831   13.93282614398374
N         8.80200209241784   10.87497493362051   14.34422695794039
C        10.19494672041284    9.84560396819145    8.24739566849014
H        10.77278949938008    8.93632894895939    8.08626861398689
H         9.67337597725057    9.77051453423426    9.20157099779360
H        10.85770239623712   10.71060292940572    8.26840523504492
C         9.24302098037348    9.98715376503064    7.19970219430850
N         8.47423377355122   10.09900297649655    6.35669161732386
C         9.14529600234604    1.36473235758907    6.59675408644315
H         8.17141124686446    1.41130355176812    7.08252148919778
H         9.32364797466325    0.36222421049276    6.21112329336320
H         9.17753687390720    2.07418810939627    5.77190917638210
C        10.18042988942903    1.70427012502751    7.52327679895954
N        11.02075122294357    1.97206199908235    8.25265042849638
C         1.75575709715108    1.69013102779334   10.17538387464862
H         0.79872124682676    1.17112291709090   10.17036472968742
H         2.05290325666890    1.89787886640581   11.20564127074028
H         2.51244900822043    1.06759918120746    9.69816341393744
C         1.64241898962172    2.91947095721741    9.45804495977688
N         1.57275079687312    3.90782938949129    8.88302943664357
