21
Energy:   -232.04308355
O   -1.53106813  -0.35785381  -0.36598639
H   -0.69673742  -0.04583423  -0.71636889
H   -1.30622492  -1.15327947   0.11668887
O    1.13502405  -0.14653050   1.77932904
H    0.67105761  -0.97337967   1.64784729
H    1.80009887  -0.34664126   2.43801183
O    1.14531487  -2.22293418  -1.44693627
H    0.99242999  -2.40598334  -2.37394818
H    1.25680323  -1.27317170  -1.40506233
O   -1.80104403   2.08458360   0.84253834
H   -1.87266011   1.21135503   0.45708426
H   -1.43705942   1.93280281   1.71472504
O   -0.16471969  -2.44076879   0.92101504
H    0.31783758  -2.48621833   0.09560323
H   -0.37936446  -3.35124688   1.12396607
O   -0.00173847   3.01121309  -0.98356512
H   -0.65569416   2.78807935  -0.32115653
H   -0.44429016   3.63764820  -1.55624208
O    1.04655790   0.48905215  -0.89823168
H    0.82338687   1.41043610  -1.03043662
H    1.19583426   0.41109445   0.04403739
