21
Energy:   -232.47168035
O    1.17930927  -0.86126375  -2.18990275
H    1.52032889  -0.11799093  -2.68737936
H    0.25389634  -0.65632877  -2.05631981
O   -0.97024257  -1.33679647   0.96810380
H   -0.05496197  -1.59422662   0.85754621
H   -1.25923781  -1.09416816   0.08841914
O   -1.00742562   2.11713440  -0.40256616
H   -1.37108434   2.03166830   0.47872819
H   -0.05922383   2.08900264  -0.27468405
O   -1.44584953  -0.28961984  -1.53512114
H   -1.38874503   0.61461833  -1.22637487
H   -2.35675109  -0.39200369  -1.81081615
O    1.46173910   1.42637524   0.59137325
H    1.67422115   0.51906742   0.37256799
H    0.81938748   1.35876499   1.29780450
O   -0.62896989   0.97873026   2.33596523
H   -0.86694758   0.85190639   3.25439550
H   -0.81182966   0.13527154   1.92199477
O    1.66763181  -1.74615845   0.30116299
H    1.92576469  -2.66789372   0.30299421
H    1.57909330  -1.52357395  -0.62557803
