21
Energy:   -233.95047535
O   -1.63718565  -0.24588064  -1.23814751
H   -1.87569773  -0.60859600  -0.38504645
H   -2.42843520  -0.33977924  -1.76856156
O    2.17368428   1.16275393  -0.93004625
H    1.37167323   1.62341305  -0.68346302
H    1.86994270   0.33669154  -1.30633581
O   -0.15300020   0.44835997   2.10024970
H    0.66543863  -0.00911956   1.90763032
H   -0.19656810   1.14730057   1.44770413
O    2.06355700  -0.76321355   1.07208139
H    1.68627673  -1.29517249   0.37143089
H    2.40003667   0.01504866   0.62787287
O    0.91006806  -1.29327990  -1.49635411
H    0.00067192  -0.99649108  -1.46248822
H    0.92569008  -1.93878561  -2.20297294
O   -0.38448987   2.00280391  -0.20365145
H   -0.87934484   1.30655898  -0.63561602
H   -0.87892647   2.80062805  -0.39137712
O   -2.15664856  -1.13192512   1.25600269
H   -2.44830273  -1.72078500   1.95200106
H   -1.47401788  -0.59861322   1.66321962
