21
Energy:   -239.85591901
O   -2.22792436   1.64917407  -0.70224695
H   -2.88723552   2.24944109  -0.35408012
H   -2.25602054   0.89449521  -0.11411238
O    0.44323447   0.64180910   1.73554327
H    0.51025303   1.27440770   1.02030947
H   -0.44881088   0.30067290   1.67141022
O   -2.00073282  -0.50687003   1.00116845
H   -1.48375099  -1.08745309   0.44270184
H   -2.62148215  -1.08744703   1.44143253
O    2.08082264  -1.23652809   0.73983675
H    1.56229936  -0.56069340   1.17642916
H    2.77511368  -1.44709728   1.36421838
O    1.52065340  -0.23922704  -1.79049341
H    1.88264926  -0.57659425  -0.97111913
H    2.26107725  -0.23718490  -2.39712360
O    0.48217370   2.03423059  -0.60146687
H   -0.46311050   2.00903056  -0.74990737
H    0.82992324   1.33025416  -1.14893312
O   -0.33296016  -2.01095823  -0.49188873
H    0.45473057  -2.06457308   0.04931421
H   -0.06193625  -1.50997951  -1.26117295
