21
Energy:   -232.79574107
O   -2.31797631   0.38363328  -0.48425085
H   -3.07731301   0.36013483  -1.06656300
H   -2.16476384  -0.53238498  -0.25258659
O    1.77798584  -0.70120141  -0.86093697
H    1.41481784  -1.10193544  -0.07115656
H    2.02355981   0.18340678  -0.59002437
O    0.66787080  -1.53146796   1.53628500
H    1.39547972  -1.76029076   2.11460777
H    0.42999633  -0.63999320   1.79107971
O   -0.09893411   1.09153249   1.76796279
H    0.46654758   1.55531113   1.15040981
H   -0.98016042   1.19099582   1.40771416
O   -0.09179115   1.02106327  -1.99030692
H    0.44282990   0.24048700  -1.84500425
H   -0.89921232   0.85277271  -1.50452797
O    1.69129834   1.98069557  -0.18710677
H    1.08884316   1.88519186  -0.92477787
H    2.27067269   2.69879448  -0.44184420
O   -1.65511881  -2.17284607   0.14529307
H   -1.48638683  -2.96968361  -0.35751037
H   -0.88368426  -2.07320958   0.70313997
