21
Energy:   -235.68860091
O   -2.26774255   1.27714412  -0.88413538
H   -2.47810644   0.39833059  -0.56843670
H   -1.67127997   1.13193142  -1.61855864
O    1.83633277   0.98218269  -0.80743171
H    2.13224751   0.26272417  -0.24971694
H    2.64182725   1.42223011  -1.07903574
O   -0.16429108  -0.77305676   1.98667723
H   -0.20430361   0.13250702   1.67913035
H   -0.40802436  -0.72357893   2.91100287
O    2.36069685  -1.05455836   0.91356103
H    2.63789417  -1.96993638   0.95198739
H    1.52571273  -1.03682645   1.38123500
O   -0.27622802   0.00795281  -2.32616762
H   -0.64533037  -0.62286968  -1.70805898
H    0.51503277   0.33126649  -1.89534692
O   -0.24013532   1.66811317   0.90110754
H   -1.00396736   1.69824808   0.32501350
H    0.50822416   1.62900853   0.30557352
O   -1.58383570  -1.45277268  -0.27679588
H   -1.11831273  -1.31601036   0.54832004
H   -1.91336928  -2.34970253  -0.22061480
