21
Energy:   -233.94756447
O   -1.23368332   0.80428196   0.07569778
H   -1.05867516   1.40928122   0.79651668
H   -1.12974342  -0.06542925   0.46174281
O    0.12220789  -1.98473390  -1.81426475
H   -0.58379588  -1.40962621  -2.10929300
H    0.20904357  -2.63509266  -2.51120441
O    1.36362010   0.30874759  -0.74606584
H    1.19752841  -0.48756798  -1.25057245
H    0.49438981   0.67420976  -0.58142090
O    2.06551580   0.62593555   1.84418386
H    1.94685579   0.52623405   0.89961451
H    3.00801332   0.75027178   1.95585643
O   -1.83424076  -0.16887607  -2.42653898
H   -1.75998688   0.30728362  -1.59950200
H   -2.66318694   0.12885488  -2.80128736
O   -0.38204342  -1.64534582   0.93889558
H   -0.19036240  -1.97515142   0.06098983
H    0.46295771  -1.34248058   1.27127725
O   -0.20187276   2.17342472   2.19755343
H    0.63024744   1.70113593   2.17014674
H   -0.40791163   2.24270091   3.12974475
