21
Energy:   -238.29856380
O   -2.16521774   2.21211061   0.62408735
H   -1.64806919   1.52436579   1.04336803
H   -2.04843932   2.97725929   1.18724110
O    1.69665570  -1.52901002  -0.86395667
H    1.70422102  -1.70194025   0.07746233
H    2.47936337  -1.96936670  -1.19514627
O   -1.04387787  -1.22691119  -1.02121116
H   -1.48988050  -2.00528948  -1.35503856
H   -0.11219809  -1.43184615  -1.09999127
O   -0.47505075   0.16792513   1.32890729
H   -0.88278198  -0.37529170   0.65444263
H    0.21203982   0.64844020   0.86712416
O   -0.98094688   1.47723638  -1.75870737
H   -1.50629441   1.87181092  -1.06260914
H   -1.14958739   0.53800773  -1.68359573
O    1.39981049  -1.74941216   1.82822958
H    0.70345883  -1.09266313   1.83086119
H    1.77655498  -1.70324775   2.70695838
O    1.34912351   1.22057529  -0.35614768
H    1.65011948   0.36785016  -0.66998384
H    0.65085930   1.46676923  -0.96281685
