21
Energy:   -240.52903510
O    2.65572573   1.26826545  -0.58509941
H    3.22290555   1.66807806  -1.24440872
H    1.86834444   1.01564729  -1.06722660
O    0.59788178  -1.59927525   0.40207050
H    1.06416844  -1.05218496   1.03413127
H    0.59087313  -1.08242592  -0.40356559
O   -2.19692581  -0.81827915  -2.01756654
H   -3.04574492  -0.44553932  -2.25590030
H   -2.27383442  -1.01240459  -1.08341868
O   -2.03792503  -1.20433680   0.72807532
H   -1.12209407  -1.47484404   0.66241462
H   -2.43607271  -1.84590430   1.31637917
O   -0.85191292   1.34174475   0.88179120
H   -1.39698592   0.56215127   0.98838047
H   -0.06053369   1.15199167   1.38572028
O    1.65380582   0.54228801   1.84414504
H    2.23775998   0.77284261   2.56669190
H    2.11090895   0.84598420   1.05988921
O    0.18343838   0.44174658  -1.46386114
H   -0.20783683   0.90902185  -0.72576265
H   -0.55817815   0.03063843  -1.90796346
