21
Energy:   -232.52618078
O   -2.51776600   1.25511380  -0.54993624
H   -2.30090925   0.33204904  -0.41895361
H   -2.60286986   1.34935632  -1.49867621
O    1.47132393   1.10647555  -1.31566594
H    2.01527379   0.58365670  -0.72658967
H    0.91956129   1.62829452  -0.73300411
O    0.04425692  -0.30886324   1.91511254
H   -0.38588185  -0.34420075   2.76949170
H   -0.58750267  -0.70046352   1.31198660
O    2.40055577  -0.80677359   0.54894360
H    1.65031273  -0.64824673   1.12186284
H    3.15897382  -0.77368365   1.13198645
O    0.56011104  -1.45439053  -1.60363839
H    1.27779499  -1.74105620  -1.03885136
H    0.74959133  -0.53358700  -1.78377701
O   -0.18922056   2.13470239   0.59757964
H   -1.06006002   2.00588139   0.22171314
H   -0.06675230   1.38621244   1.18152842
O   -1.61144135  -1.30769943  -0.04804887
H   -0.88130444  -1.39833600  -0.66035349
H   -2.13022660  -2.10221591  -0.17389514
