21
Energy:   -237.02956210
O   -1.32140165   1.33857756  -0.50944334
H   -1.90526994   2.00268563  -0.87589955
H   -1.09678296   1.66993255   0.36002901
O    1.33937116  -1.21503810   0.48690937
H    1.83224041  -1.99500409   0.23202743
H    1.29768691  -0.68643753  -0.31000700
O   -1.39621683  -1.40689248  -0.04912395
H   -0.52078436  -1.46130288   0.33413751
H   -1.55030636  -0.46911302  -0.16339533
O    1.67091546   0.78661233   2.33443823
H    2.55948593   1.10428395   2.17394176
H    1.58007447   0.02695600   1.75919738
O   -0.52953003  -1.94195844  -2.55772068
H   -1.16174826  -2.44593751  -3.07010439
H   -0.93213470  -1.86006637  -1.69317743
O    0.93111758   0.24414837  -1.73218765
H    0.19960177   0.76530938  -1.40126822
H    0.51756437  -0.46013172  -2.23138214
O   -0.64405003   2.15796626   1.97722583
H    0.19394545   1.72482750   2.13966425
H   -1.09119375   2.14055998   2.82338856
