21
Energy:   -239.92721658
O   -2.13032908   0.08269314   0.49183814
H   -3.07172010   0.16128747   0.64623281
H   -1.72659847   0.46871756   1.26915313
O    1.25921786   1.54032892   0.79688941
H    0.72033858   1.69496658   0.02104912
H    1.66243122   0.68601264   0.64263468
O   -0.77385451   1.23004687   2.53659511
H   -0.66732863   1.81656288   3.28551637
H    0.00510093   1.38069340   2.00108985
O    2.09336794  -0.98406679   0.03534968
H    2.99944882  -1.28718588  -0.02268581
H    1.80426189  -0.91619651  -0.87461909
O    0.59962041  -0.94018305  -2.31677360
H    0.07518343  -1.44442443  -1.69472992
H    0.42840970  -1.35160350  -3.16391700
O   -0.48214351   1.42366589  -1.31109880
H   -0.11216749   0.69598054  -1.81092238
H   -1.16803269   1.02350797  -0.77662568
O   -0.56877869  -2.09050896  -0.18832638
H    0.23945551  -1.90891555   0.29127050
H   -1.18429978  -1.42443418   0.11779456
