21
Energy:   -240.42347510
O   -0.15039290   0.00490229  -2.22288749
H   -0.81493042  -0.34202950  -1.62768999
H   -0.60889516   0.11654225  -3.05568041
O   -1.64801215   1.44750947   1.35165165
H   -1.92753450   1.98963856   2.08934749
H   -1.25624028   0.67400001   1.75715104
O    2.05352463  -1.46674186  -1.45392436
H    1.29624975  -1.00594738  -1.81508228
H    2.75381536  -1.31108625  -2.08764044
O   -1.94793452  -0.76592002  -0.37141289
H   -1.47546769  -1.21001572   0.33270781
H   -2.21081916   0.07276518   0.00770536
O    0.54514930   1.90392166  -0.29408495
H    0.32197621   1.37281375  -1.05851284
H   -0.24879414   1.90050332   0.24058690
O   -0.44647237  -0.94273002   2.05434504
H    0.41456142  -0.71444015   1.70400750
H   -0.26166412  -1.56079893   2.76150031
O    1.85684771  -0.15405477   0.93943066
H    2.05004508  -0.70107675   0.17806768
H    1.56153233   0.67756305   0.56871178
