21
Energy:   -234.85007914
O   -2.24520134   0.51527452  -1.19837813
H   -1.70818380   0.38141150  -1.97935489
H   -1.71116913   1.07289674  -0.63260530
O    0.83716485  -0.67097507  -0.53341571
H    0.53965703   0.20792428  -0.29834792
H    0.08725748  -1.23597192  -0.34727237
O    0.85931468   1.31872986   2.70875886
H    0.56974688   1.09749168   3.59387807
H    1.44967762   0.60605242   2.46423009
O   -1.57358005  -1.89477401  -0.17360786
H   -1.95515012  -1.09028750  -0.52494471
H   -2.29999556  -2.32995660   0.27267510
O   -0.18819717   1.75862157   0.24599524
H    0.08943397   1.67647658   1.15835756
H    0.13603751   2.61680399  -0.02718353
O   -0.25848877  -0.14083390  -2.99662972
H   -0.20635896  -0.90456447  -3.57128610
H    0.26738481  -0.37872273  -2.23302136
O    2.34364869  -0.75383612   1.73546875
H    1.87032999  -0.83483027   0.90743420
H    3.21972039  -1.08912356   1.54491023
