21
Energy:   -232.07693179
O    1.12354152  -1.24987214   1.59654929
H    1.64032991  -0.72068528   0.98899446
H    0.38419471  -1.56134913   1.07445711
O   -1.50155040   0.03767222  -1.57560024
H   -2.38246864   0.33687147  -1.80075508
H   -1.13517566   0.74649628  -1.04685659
O   -1.47839022  -1.50690992   0.64054124
H   -1.57906382  -1.08344463  -0.21196906
H   -1.59122501  -0.79906179   1.27493165
O    1.00169068  -0.69480991  -2.36116098
H    1.01363021  -1.25096142  -3.14012491
H    0.07320983  -0.52588686  -2.20109796
O   -0.38360073   1.77169879   0.03296300
H   -0.59001934   1.50169375   0.92779287
H    0.53158858   1.51907485  -0.08886282
O    2.13208513   0.79879719  -0.47986068
H    2.59433026   1.51870923  -0.90914838
H    1.83881319   0.23921595  -1.19895195
O   -0.77590251   0.55990499   2.48820161
H   -0.03800392  -0.03873786   2.37259774
H   -0.94237991   0.55640288   3.43080697
