73
Energy:   -663.83778789
C    4.10292071   3.65017955   0.79908702
H    3.11518770   3.90444551   1.12255650
H    4.24137784   3.97292475  -0.21163760
H    4.82005851   4.13343857   1.42922446
C    4.29310109   2.12418039   0.88129396
N    4.43469903   0.98800465   0.94250077
C    0.83003233   2.07800622  -5.23215109
H    0.36294747   2.82560903  -5.83863437
H    1.08562809   1.23476021  -5.83919810
H    1.71701631   2.48078209  -4.78951116
C   -0.14217706   1.63596400  -4.12264329
N   -0.86603115   1.30684347  -3.29656430
C   -3.72116234  -0.17937339   4.94878724
H   -4.53609865   0.16749426   4.34840250
H   -3.35056117   0.62662184   5.54705603
H   -4.05861390  -0.97032738   5.58551114
C   -2.59597192  -0.70025258   4.03542455
N   -1.75821651  -1.08807081   3.35538452
C    1.54861427  -0.20725961   2.42178466
H    2.58018345  -0.28817988   2.69421282
H    1.37471062  -0.75224178   1.51754407
H    0.94039188  -0.61093154   3.20409764
C    1.18960195   1.27456050   2.20517599
N    0.92230096   2.37784293   2.04390099
C   -0.02893942   4.09439123  -0.93286522
H   -0.28536654   5.09271852  -1.22007236
H    0.10928590   4.05263235   0.12734657
H   -0.81679837   3.42819640  -1.21634683
C    1.27511306   3.67646958  -1.63741375
N    2.24603941   3.36530792  -2.16198215
C    0.05582982  -3.74798947   1.93635761
H    0.01962968  -3.19136468   2.84946142
H    1.07084313  -4.00390623   1.71465127
H   -0.52282784  -4.64198142   2.04043827
C   -0.52009598  -2.89410259   0.79146168
N   -0.94889892  -2.25834500  -0.06096537
C    5.16733984  -2.24734375   1.19875391
H    4.97305342  -1.70201499   2.09862585
H    5.78321365  -1.65901259   0.55109274
H    5.67090375  -3.16088902   1.43699226
C    3.83581118  -2.56414485   0.49287255
N    2.84442757  -2.80001767  -0.03268821
C    1.47243177  -4.21507550  -2.81927720
H    1.12212803  -4.95444771  -3.50885404
H    1.33925516  -4.56926794  -1.81842217
H    2.51079174  -4.02638811  -2.99564255
C    0.67381848  -2.91272637  -3.01345121
N    0.07921458  -1.94306824  -3.15802258
C    3.62617051   0.12540545  -2.22732530
H    3.92935770   1.12324638  -2.46668106
H    3.57164131  -0.45561668  -3.12417476
H    4.33871581  -0.31364664  -1.56068331
C    2.24275383   0.15740482  -1.55150408
N    1.21273723   0.18122981  -1.04832445
C   -4.23743465  -2.63647962   0.95582432
H   -3.85005420  -2.70542583  -0.03920481
H   -5.10540357  -3.25590553   1.04437149
H   -3.49334693  -2.96354542   1.65171261
C   -4.61667729  -1.17500550   1.25892234
N   -4.89904068  -0.08687158   1.48459259
C   -2.54634239   2.45704133   2.24859986
H   -2.51247526   3.50780063   2.04945649
H   -1.86599506   2.22195692   3.04028283
H   -3.53884763   2.18056228   2.53737623
C   -2.14581101   1.68100100   0.98016145
N   -1.84759719   1.10320370   0.03575139
C   -5.57157308   0.81987987  -1.98537814
H   -6.42155033   0.27589993  -2.34108121
H   -5.42325546   1.68750492  -2.59375940
H   -5.73838564   1.11929009  -0.97175781
C   -4.32162010  -0.07685564  -2.05667308
N   -3.39097329  -0.74451600  -2.10975541
Na  -1.05113525  -0.43020958  -1.62440424
