73
Energy:   -663.31786343
C    3.82012328  -0.64682236  -0.89448256
H    4.57333068   0.03841807  -0.56581198
H    4.25695340  -1.61202322  -1.04436867
H    3.05147320  -0.71441981  -0.15319535
C    3.21363932  -0.14659794  -2.21870034
N    2.76208443   0.22584187  -3.20464066
C    0.45532192   1.71630451  -5.15532851
H    0.09850053   2.26880541  -5.99931988
H    1.26843828   1.08967917  -5.45712572
H    0.79017897   2.39596582  -4.39979535
C   -0.68334761   0.84478253  -4.59365144
N   -1.53113884   0.19589480  -4.17545733
C    3.85554958   1.60863811   2.96201642
H    3.41717800   2.58403286   2.92547040
H    4.65105449   1.54818471   2.24898318
H    4.24167803   1.42768394   3.94337237
C    2.78580632   0.55224334   2.62843067
N    1.98933384  -0.23429058   2.38006091
C   -1.67872248   0.47142490   6.79667387
H   -2.47108374   1.18908022   6.75156669
H   -0.90172108   0.83763220   7.43468651
H   -2.05500022  -0.45130619   7.18639363
C   -1.11505611   0.23951553   5.38242556
N   -0.69538087   0.06684847   4.32945342
C   -2.56101851   1.75387546  -1.30761306
H   -2.34951396   0.70508614  -1.29322710
H   -3.30092133   1.95831860  -2.05302967
H   -2.92719102   2.05706050  -0.34902263
C   -1.27350303   2.53274436  -1.63512965
N   -0.31488922   3.11264766  -1.87898063
C   -1.33156911  -4.55898157   0.35754575
H   -0.52374144  -4.64532364  -0.33877292
H   -2.24309270  -4.38127966  -0.17391062
H   -1.41700991  -5.46585931   0.91894732
C   -1.05935315  -3.38524334   1.31662710
N   -0.85667599  -2.51134188   2.03070676
C    2.76038563  -3.53909862   2.74804337
H    3.63292534  -2.94416242   2.92016417
H    2.95589979  -4.55076467   3.03649632
H    1.94652627  -3.15426308   3.32634574
C    2.39453493  -3.49319458   1.25283566
N    2.12214245  -3.45901693   0.13958556
C    0.20882536  -2.14828383  -2.50813139
H    0.83355404  -2.97783668  -2.25034017
H    0.64111134  -1.61843168  -3.33110443
H   -0.76168637  -2.50475340  -2.78369538
C    0.08432558  -1.20388745  -1.29808375
N   -0.00837017  -0.50074142  -0.39714828
C    2.99527178   3.74714483  -2.54977288
H    2.06153200   4.26225144  -2.63749617
H    3.04312580   2.96832070  -3.28192181
H    3.79875390   4.43571556  -2.70847365
C    3.11387166   3.13567272  -1.14135677
N    3.20217465   2.68040395  -0.09272696
C   -4.24526607  -1.64445164  -3.77003221
H   -3.55900252  -1.99130347  -4.51409963
H   -4.40870884  -0.59468675  -3.89722976
H   -5.17458025  -2.16498870  -3.87159704
C   -3.66021840  -1.90693723  -2.36988202
N   -3.22462382  -2.10236968  -1.32740656
C   -5.01182198  -1.42494710   1.50374893
H   -4.76801681  -2.36915139   1.06336560
H   -5.73196383  -0.92180431   0.89289532
H   -5.41981000  -1.58163637   2.48042357
C   -3.73905319  -0.56463130   1.61106312
N   -2.79141897   0.07591291   1.69096341
C    0.68455891   4.73593380   1.10465106
H    1.73938154   4.82364772   1.26135356
H    0.17298847   5.45408253   1.71083353
H    0.46098018   4.91540690   0.07377714
C    0.22446728   3.31778439   1.49035552
N   -0.11809185   2.26190769   1.77753003
Na  -0.39541775  -0.12006212   1.94427070
