73
Energy:   -665.58283519
C    4.28804809   2.41988037   1.59921877
H    5.12427877   2.46658299   2.26512965
H    3.63517591   3.24632673   1.78801341
H    4.63465982   2.46296184   0.58783191
C    3.52528579   1.10119108   1.82472319
N    2.95737458   0.11936697   1.99262148
C    0.21024013   1.28074705  -0.00556764
H    0.57514844   1.40309273  -1.00395315
H   -0.85157119   1.15043874  -0.02737515
H    0.66614880   0.42027792   0.43787261
C    0.55709241   2.53064180   0.82452669
N    0.81533971   3.46124526   1.44256965
C    0.05157126   0.95811931   4.03006443
H   -0.18491738   0.70952714   5.04356098
H   -0.49129018   1.83391766   3.74165883
H    1.10163004   1.14502371   3.94437673
C   -0.33804761  -0.21359343   3.10980013
N   -0.62813657  -1.08598682   2.42462153
C   -4.18169857  -0.69392800   2.33851817
H   -5.12736481  -0.45792631   2.78001420
H   -3.53728555  -1.11700362   3.08056801
H   -4.32399106  -1.39862080   1.54601580
C   -3.54332318   0.58955174   1.77570682
N   -3.06802368   1.54516075   1.35666819
C    0.90364199   1.98144336  -4.60081785
H    0.71958994   1.86234372  -5.64811928
H    1.94301808   2.17955696  -4.44160906
H    0.32339462   2.79925022  -4.22744937
C    0.50773649   0.69068951  -3.85999849
N    0.21296686  -0.27033541  -3.30842480
C    3.15419012  -3.10131744   3.19403405
H    3.77134197  -2.75149035   2.39300672
H    3.65055352  -3.90041344   3.70390467
H    2.97114213  -2.30019488   3.87930419
C    1.81501043  -3.60772458   2.62680432
N    0.81793028  -3.98476772   2.20447600
C    3.37324139  -0.87634192  -1.59711618
H    4.09713428  -1.61237653  -1.87842086
H    3.82181389  -0.17260247  -0.92746508
H    3.02570741  -0.36571719  -2.47083330
C    2.18595472  -1.56478017  -0.89854396
N    1.30196583  -2.07735373  -0.37842519
C   -0.40213593  -3.67065873  -3.66605035
H   -0.44415036  -4.53820076  -4.29095498
H    0.56976554  -3.22839458  -3.73467280
H   -1.13895201  -2.96411878  -3.98667856
C   -0.68001428  -4.07546659  -2.20642224
N   -0.88690735  -4.37686444  -1.11966277
C    2.00712654   5.05457383  -1.63545362
H    1.71755270   5.28471736  -0.63142119
H    1.15728168   5.13917232  -2.28005110
H    2.76565439   5.73888981  -1.95364575
C    2.55532560   3.61667456  -1.69481258
N    2.96348473   2.54609320  -1.73900802
C   -3.29436778  -6.46735170   2.03147052
H   -2.79467025  -6.87593490   2.88485340
H   -3.00436566  -7.00870782   1.15526769
H   -4.35288958  -6.54705714   2.16592399
C   -2.90746415  -4.98543031   1.87080144
N   -2.61939681  -3.88207247   1.75117601
C   -2.48179227   4.67760739  -0.03656248
H   -3.36935783   4.13060661   0.20409851
H   -2.74297426   5.67820187  -0.31132373
H   -1.83416158   4.69906395   0.81491459
C   -1.76055732   3.99388889  -1.21297617
N   -1.22356512   3.48482940  -2.08886964
C   -3.12296405   0.46680263  -2.26897301
H   -3.83352739   0.01730100  -2.93074956
H   -2.33150506   0.90542581  -2.84002595
H   -3.60610396   1.22458147  -1.68824403
C   -2.54403197  -0.60817752  -1.33043407
N   -2.11299073  -1.40854910  -0.63164917
Na  -0.71002343  -2.82630802   0.73864384
