73
Energy:   -663.55955315
C    1.04453846  -0.26507479  -2.97652846
H    0.08641756  -0.20232034  -3.44872165
H    1.45408103  -1.24174922  -3.12910970
H    1.69984229   0.46672707  -3.40072419
C    0.89093325  -0.00296038  -1.46679290
N    0.77656720   0.19219571  -0.34272614
C    0.37378580   3.78607408  -4.57094191
H   -0.15434620   3.92093650  -5.49169644
H    1.27697094   3.24239157  -4.75414945
H    0.61142540   4.74187800  -4.15277282
C   -0.50803533   2.99882488  -3.58391091
N   -1.16459125   2.41268206  -2.84902147
C    2.42736131   2.78830719   4.24670050
H    2.63289342   2.51174105   5.25969995
H    1.94483304   3.74315605   4.22855615
H    3.34466941   2.84176723   3.69844238
C    1.50578912   1.73514275   3.60393353
N    0.81963673   0.95101396   3.12536431
C   -5.09635625  -0.85255130   3.32735083
H   -5.53536285  -0.42925224   4.20655006
H   -5.10688114  -1.91989813   3.40190990
H   -5.65665462  -0.54952970   2.46761672
C   -3.64295357  -0.36172767   3.19202603
N   -2.56082921   0.00371284   3.09127057
C   -1.23274980  -3.70371846   3.82442073
H   -1.71453452  -3.12381453   4.58369347
H   -0.46705423  -4.30568868   4.26741198
H   -1.95255587  -4.33597050   3.34793812
C   -0.60538542  -2.76198753   2.77983623
N   -0.13828412  -2.06082604   2.00209559
C    3.27220433  -1.34087369   1.72551143
H    2.59083945  -1.59263514   0.93985358
H    2.78212196  -1.44802248   2.67062385
H    4.11864740  -1.99426164   1.68655738
C    3.73996825   0.11608156   1.55208042
N    4.08823975   1.20085097   1.42295316
C   -3.77695196  -4.30140049  -1.08090368
H   -3.52212491  -3.58932407  -1.83781221
H   -4.78473834  -4.63052419  -1.22562173
H   -3.11543878  -5.14011378  -1.14302791
C   -3.64533766  -3.64544479   0.30617952
N   -3.54734483  -3.15705596   1.33892601
C    5.43848136   0.78172101  -1.96697111
H    5.08629604   1.32768109  -2.81714361
H    6.45454974   0.48746198  -2.12795481
H    5.38015592   1.40091807  -1.09628619
C    4.56692951  -0.47172346  -1.76479712
N    3.91801954  -1.40496985  -1.61426940
C    2.09732714   3.55553877   0.21330523
H    2.99464057   3.87276065   0.70228280
H    1.67036466   2.73384038   0.74941518
H    1.39930687   4.36610741   0.18790267
C    2.42500134   3.11499416  -1.22549638
N    2.66896968   2.78698867  -2.29674957
C    1.48264011  -4.01217305  -0.58894798
H    1.47920512  -3.85002009   0.46868844
H    2.33948399  -3.53769472  -1.01974721
H    1.51863567  -5.06276551  -0.78859487
C    0.20256027  -3.41637733  -1.20378378
N   -0.75051736  -2.97278033  -1.66155697
C   -2.90729921   3.98283115  -0.42804381
H   -3.35601177   3.33604378  -1.15276673
H   -2.39784354   4.77983780  -0.92817820
H   -3.66698462   4.38818793   0.20714360
C   -1.90134298   3.18321549   0.42064157
N   -1.15236284   2.58786529   1.05252641
C   -3.07209519  -0.57091729  -2.78025391
H   -4.09308195  -0.87855951  -2.86881169
H   -2.43310022  -1.34343889  -3.15414547
H   -2.91882491   0.32393344  -3.34651311
C   -2.74290661  -0.30420449  -1.29967998
N   -2.49781074  -0.10562469  -0.19732539
Na  -0.78564079   0.22456443   1.48307057
