73
Energy:   -663.81152810
C   -4.30961375  -2.53376452   1.69214881
H   -5.03041269  -2.98569718   2.34107557
H   -4.20639576  -3.12545425   0.80662726
H   -4.63549674  -1.54955803   1.42750385
C   -2.95172854  -2.44824990   2.41356062
N   -1.94072128  -2.38458038   2.95068451
C   -1.03909618   0.90985352   2.64137158
H   -0.54069092   1.85052582   2.53353838
H   -0.42910974   0.13364605   2.22867604
H   -1.21134215   0.71437951   3.67916747
C   -2.38644863   0.95448364   1.89689220
N   -3.38961376   0.98771279   1.34259346
C    1.18782463   3.81431027  -0.25609496
H    1.26200346   4.45177548   0.60008014
H    0.20772396   3.89579807  -0.67759408
H    1.91472445   4.10869896  -0.98400362
C    1.44548295   2.35585312   0.16594169
N    1.63732129   1.26996547   0.48016715
C   -3.62461999   3.39266071  -1.26150727
H   -3.35895869   4.36825329  -0.91144533
H   -4.15536497   2.87030700  -0.49316133
H   -4.24677309   3.48162431  -2.12748076
C   -2.34766002   2.61229307  -1.62482471
N   -1.39690527   2.03127388  -1.89533106
C    1.08526283  -2.45168773   4.55887924
H    0.12451349  -2.04479919   4.79616093
H    1.82160209  -2.03174931   5.21183813
H    1.06308259  -3.51425622   4.68279589
C    1.44016919  -2.11239556   3.09924837
N    1.70441311  -1.85977712   2.01248683
C    1.42573191   2.09677741  -3.94817100
H    0.74190843   2.77144825  -3.47689094
H    1.08373010   1.87564873  -4.93763346
H    2.39460208   2.54809200  -3.99821928
C    1.50770485   0.79445780  -3.13034212
N    1.56873744  -0.17517835  -2.52143135
C   -0.15357421  -5.00174047   1.32617201
H   -0.02794326  -6.06431897   1.33280305
H   -0.46737695  -4.67363705   2.29507606
H    0.77554773  -4.53429780   1.07491743
C   -1.21999044  -4.61741273   0.28374762
N   -2.01398580  -4.33126326  -0.49238473
C    5.48332463  -0.93729575  -2.92548830
H    6.49495738  -1.23740342  -2.74818985
H    5.47048561   0.05562340  -3.32404296
H    5.02960217  -1.60818988  -3.62472796
C    4.69882804  -0.96884043  -1.60065999
N    4.11473467  -0.99232687  -0.61426510
C   -3.92916381   4.49057576   2.88933723
H   -4.49390380   5.31954142   2.51679884
H   -3.71378000   4.64294660   3.92630012
H   -4.49616714   3.59087091   2.77128005
C   -2.61028878   4.37308697   2.10297533
N   -1.62832637   4.28561123   1.51749316
C    5.45672795   2.28636610   0.50368536
H    6.51468534   2.24854922   0.34813402
H    5.13940559   1.40111623   1.01411487
H    5.21348407   3.14501946   1.09397845
C    4.74085522   2.37907341  -0.85665709
N    4.20785544   2.44809822  -1.86949389
C    0.11342510  -4.03577890  -3.40124156
H    0.56282509  -4.90241331  -3.83928793
H    0.05281370  -3.25714939  -4.13265214
H   -0.87005705  -4.27930156  -3.05720860
C    0.96934078  -3.55862618  -2.21324592
N    1.60660891  -3.20336430  -1.32872917
C   -2.98364073  -1.07480984  -1.60524705
H   -3.71432643  -0.53675116  -1.03824490
H   -3.32261157  -2.07721951  -1.76390618
H   -2.83973683  -0.59324555  -2.54985628
C   -1.65124657  -1.09958417  -0.83342321
N   -0.65921855  -1.11802979  -0.25876529
Na   1.73424419  -1.03617006  -0.23640234
