73
Energy:   -666.68189044
C   -0.23285964   3.78455317  -2.94813322
H    0.45249047   4.58544105  -2.76435613
H   -1.10754040   4.16736834  -3.43112930
H    0.23183160   3.05488487  -3.57785166
C   -0.62917374   3.13108139  -1.61115538
N   -0.92424761   2.64454195  -0.61571460
C   -4.79826686  -2.84262020   0.18161082
H   -4.56636178  -2.83818950  -0.86294679
H   -5.82978543  -2.59364309   0.31901146
H   -4.60944554  -3.81561403   0.58475921
C   -3.91918117  -1.80695243   0.90700769
N   -3.26466192  -1.03585070   1.44709863
C    5.68492292   3.55557975  -1.55144423
H    5.88327780   2.59519823  -1.12339883
H    5.92957409   4.31923672  -0.84301433
H    6.27865052   3.68291692  -2.43245040
C    4.19279882   3.65544587  -1.91912945
N    3.08184461   3.72980074  -2.19288781
C    0.20461676   1.96232663   4.93688511
H   -0.04035737   2.90636499   5.37697537
H    1.24470893   1.94479324   4.68628590
H   -0.00771153   1.17828433   5.63337162
C   -0.63416629   1.75728652   3.66173745
N   -1.25867839   1.60462484   2.71233206
C   -0.94429335  -6.00962506  -0.11418904
H   -1.45613884  -6.20543469   0.80481746
H    0.10844456  -5.95351932   0.06882496
H   -1.14400311  -6.79863309  -0.80879788
C   -1.43534223  -4.67297176  -0.70055834
N   -1.80095043  -3.67777262  -1.13713694
C    2.07380676   2.25161640   0.94817761
H    2.58931173   2.58856517   1.82317494
H    1.15618215   1.78120276   1.23379129
H    1.86383047   3.08737429   0.31389234
C    2.95476890   1.24083762   0.19066063
N    3.61068526   0.48826688  -0.37334519
C    3.39752240   0.71699819  -3.91916649
H    3.62098711   0.01935363  -4.69907404
H    4.05314633   0.54782587  -3.09065151
H    3.53258686   1.71410881  -4.28307183
C    1.93789747   0.52947225  -3.46537241
N    0.85114036   0.38985066  -3.12750209
C   -1.94639248  -1.38073589  -3.73226854
H   -1.47309317  -0.73729695  -4.44421957
H   -2.79435437  -1.85087759  -4.18484618
H   -1.25245761  -2.12937752  -3.41150509
C   -2.40590676  -0.55266860  -2.51787520
N   -2.74803603   0.06386515  -1.61370416
C    3.67639126  -2.16694573   2.12131646
H    4.04925355  -1.79540709   1.18974095
H    3.13343772  -3.07330880   1.95218185
H    4.49568486  -2.35995575   2.78192544
C    2.74202352  -1.11940631   2.75473425
N    2.04634426  -0.33946560   3.22634259
C   -0.89677172  -2.14191250   3.61540596
H   -1.90289213  -2.48674824   3.73249663
H   -0.90298583  -1.16612525   3.17643019
H   -0.42064609  -2.09933191   4.57268876
C   -0.12503039  -3.11129697   2.70090660
N    0.44956611  -3.83304778   2.02002027
C    1.36824236  -2.25516373  -1.02675864
H    0.89241534  -2.47843115  -1.95876749
H    1.48982409  -3.15668236  -0.46339275
H    2.32721963  -1.81801899  -1.21159952
C    0.49787878  -1.26547251  -0.23015426
N   -0.15014646  -0.52860242   0.36295392
C   -6.13843279   3.91911422   1.01522784
H   -6.74720948   3.87642595   0.13632577
H   -5.76944089   4.91499358   1.14549049
H   -6.72246414   3.64081877   1.86749430
C   -4.95275129   2.94776726   0.86608210
N   -4.06995751   2.22455529   0.75503632
Na  -2.08117358   0.89436381   0.56435404
