73
Energy:   -664.54097086
C    3.71916654   0.77344496   1.92087065
H    4.70604658   0.44634064   1.66794630
H    3.03894311  -0.04838581   1.83847294
H    3.71225921   1.14285056   2.92505733
C    3.28775086   1.89538668   0.95820390
N    2.96654227   2.73072329   0.24145474
C    0.02011518  -0.26573769  -4.60853890
H   -0.43282963   0.67187243  -4.36231046
H   -0.56213915  -0.75667135  -5.36011267
H    1.01022656  -0.09751286  -4.97769869
C    0.08500794  -1.15073747  -3.34990300
N    0.13332356  -1.80966003  -2.41279136
C    0.63639287   4.27226032   2.62701933
H   -0.39937929   4.46510688   2.44024029
H    1.18851359   4.37681213   1.71645317
H    1.00453882   4.97037412   3.34951831
C    0.80263475   2.83946440   3.16651863
N    0.92640938   1.77268271   3.56820039
C   -4.02288923  -3.29935425   1.64128788
H   -4.04997926  -4.36643453   1.71549031
H   -4.85111203  -2.96151791   1.05408033
H   -4.08209117  -2.87211552   2.62050250
C   -2.70666925  -2.86469175   0.97029349
N   -1.72668364  -2.54106576   0.47070767
C   -0.44885404   2.71999328  -0.97584196
H   -0.52442032   2.61779742  -2.03826651
H    0.32894654   3.41552449  -0.73885739
H   -1.37845258   3.07765652  -0.58491657
C   -0.12161892   1.35126379  -0.35046466
N    0.12202249   0.33218248   0.11515716
C    1.34115850  -1.27357953   4.91298724
H    0.58718386  -0.56974591   5.19766364
H    2.30725497  -0.82984176   5.03403885
H    1.26838010  -2.14383412   5.53125850
C    1.14060776  -1.67270914   3.43919113
N    0.99128861  -1.96987927   2.34188294
C    4.55634785  -0.22032907  -2.31223771
H    4.14774755  -0.23133942  -3.30108793
H    5.48981622  -0.74330074  -2.30619354
H    4.71252492   0.79176002  -2.00210309
C    3.57615019  -0.90844710  -1.34409199
N    2.84634848  -1.42078224  -0.62326349
C    2.04009361  -6.82942570  -0.70500203
H    3.09232839  -6.85597210  -0.51265486
H    1.85752579  -7.09072503  -1.72641807
H    1.54263394  -7.52696552  -0.06400969
C    1.50439239  -5.41120461  -0.43431191
N    1.10553848  -4.35527455  -0.23277081
C    3.01215915   4.35329133  -2.87848254
H    3.85646964   4.51112311  -3.51654923
H    3.30129260   4.50685187  -1.85979706
H    2.23600124   5.04304001  -3.13679388
C    2.49793344   2.91239411  -3.05451414
N    2.11506903   1.83958064  -3.18557767
C   -5.06034873   2.33929314  -0.29503600
H   -4.38932021   2.51428648  -1.10989686
H   -4.85305871   3.03284181   0.49294889
H   -6.06852602   2.46969603  -0.62891132
C   -4.87344887   0.90155667   0.22417713
N   -4.73429343  -0.16890349   0.61075491
C   -2.14900714   0.20346402   2.99986371
H   -1.76462998   0.29197979   3.99450905
H   -1.47335236  -0.37665938   2.40669717
H   -3.10354833  -0.27919338   3.02800689
C   -2.30083523   1.60567989   2.38152814
N   -2.41387814   2.64969335   1.92114919
C   -3.67512624  -1.80685127  -2.39585219
H   -2.87369052  -2.49825728  -2.23914007
H   -4.16731602  -2.03447002  -3.31826100
H   -4.37480282  -1.88323657  -1.58992598
C   -3.11319697  -0.37420231  -2.45375274
N   -2.69481509   0.69246996  -2.49686233
Na   0.57522639  -2.02172486  -0.04093237
