73
Energy:   -664.47322823
C    4.14957168  -0.22697474   0.59902911
H    5.03190950  -0.16707664  -0.00329337
H    3.32916564  -0.55916045  -0.00220769
H    4.30969407  -0.92014493   1.39826312
C    3.82997908   1.16256524   1.18095627
N    3.59202786   2.19714091   1.61422749
C   -0.05038554   0.91840284  -3.68614290
H    0.53998628   1.11648039  -4.55627311
H   -0.98734308   0.49337527  -3.98001571
H    0.46934887   0.23159881  -3.05126066
C   -0.29959064   2.23352795  -2.92460317
N   -0.48513518   3.21269837  -2.35760222
C    2.66650009   2.67446810   4.83086200
H    2.31440596   3.14903439   5.72289156
H    2.88931177   3.41867613   4.09505736
H    3.55106765   2.11389909   5.05041086
C    1.57945222   1.72714283   4.29002770
N    0.77009567   1.02181610   3.88735198
C   -2.64511055   0.72867697   3.39508951
H   -1.94232060   1.52949411   3.49346826
H   -2.84651210   0.31043649   4.35914937
H   -3.55396944   1.10179757   2.97123150
C   -2.05865658  -0.35896412   2.47600920
N   -1.62201495  -1.16876234   1.79171213
C    0.17551030   3.09614330   1.11566426
H   -0.12334494   3.76327598   0.33430665
H    1.07805582   3.45458275   1.56492123
H   -0.59559400   3.04546364   1.85575130
C    0.41646175   1.69302439   0.52846776
N    0.59586106   0.64833858   0.09127327
C    1.39554987  -2.26422267   4.39861874
H    1.33616106  -3.28819603   4.70333452
H    0.52245825  -1.74216105   4.73037437
H    2.26549558  -1.81388421   4.82907064
C    1.48555327  -2.18999554   2.86304402
N    1.55256490  -2.13473007   1.71973884
C    3.68457580  -1.87684285  -3.29196960
H    3.77868146  -2.72230259  -3.94100128
H    4.52893037  -1.83498509  -2.63606382
H    3.64218569  -0.98153835  -3.87637701
C    2.39490240  -2.00882614  -2.46075186
N    1.43468193  -2.10709371  -1.84187247
C   -1.12359773  -3.85156881  -3.70484207
H   -0.42929635  -4.35084549  -3.06174909
H   -0.81209074  -2.83792463  -3.84762851
H   -1.15660166  -4.35113035  -4.65048898
C   -2.52371138  -3.87287834  -3.06388368
N   -3.56615964  -3.88874426  -2.58666102
C    3.00157867   3.89453291  -1.54627825
H    2.00844865   4.26700501  -1.68719480
H    3.68534309   4.47073993  -2.13394379
H    3.26770567   3.97054869  -0.51269366
C    3.06381005   2.41973565  -1.98525464
N    3.11014413   1.32168204  -2.31209252
C   -3.15170571  -5.34833137   0.63873044
H   -3.87413006  -5.26129581  -0.14576178
H   -3.57948302  -5.00455725   1.55727550
H   -2.85958665  -6.37243164   0.74257732
C   -1.91670603  -4.49443491   0.29633210
N   -0.99719263  -3.85867019   0.04140096
C   -3.51170641   4.18367762  -1.29011616
H   -3.71633063   3.83726293  -2.28159282
H   -2.64786017   4.81492633  -1.30403837
H   -4.35177987   4.73677730  -0.92507311
C   -3.25141507   2.97767733  -0.36848080
N   -3.05761634   2.07975530   0.31771861
C   -4.46195151  -0.70127478  -1.17552942
H   -4.93383568  -1.65086566  -1.31871693
H   -4.84791896  -0.00044981  -1.88600291
H   -4.66029259  -0.35027160  -0.18439034
C   -2.94182084  -0.84842027  -1.37339543
N   -1.81001446  -0.95797678  -1.52071567
Na  -0.05439434  -1.64844776  -0.00837829
