73
Energy:   -663.57156751
C    1.78145483   0.02071904  -2.66142582
H    2.76118507   0.34482654  -2.37861288
H    1.33715033   0.74942419  -3.30677954
H    1.84983257  -0.91572885  -3.17454270
C    0.91242763  -0.14675952  -1.40113115
N    0.26539737  -0.27145491  -0.46278448
C    4.64017197   1.30625241   0.93210127
H    4.34246919   2.31135604   1.14667045
H    4.78963526   1.19577653  -0.12163252
H    5.55231820   1.08687933   1.44665330
C    3.54071534   0.33438874   1.39930156
N    2.72211990  -0.38920795   1.74715341
C    0.06455427   4.34983584   0.85784553
H   -0.85955701   4.76994498   1.19611588
H    0.05026518   4.26900864  -0.20900117
H    0.87437908   4.98205134   1.15682117
C    0.24960731   2.95160327   1.47615051
N    0.38738771   1.91055556   1.93650667
C   -4.72306119  -0.17687681   1.70035124
H   -5.00521464  -0.51259130   0.72434643
H   -4.93273929   0.86832595   1.79246741
H   -5.27777117  -0.71829250   2.43795884
C   -3.21682102  -0.41877610   1.91088695
N   -2.09535675  -0.59888111   2.06764036
C    2.53417058  -4.59039934   1.04659646
H    2.13931843  -5.33547028   0.38791501
H    2.92567885  -5.06133848   1.92399984
H    3.31601498  -4.05407497   0.55063820
C    1.41370980  -3.61215824   1.44561025
N    0.57947581  -2.88381329   1.74269415
C    2.09630970   4.30719270  -3.35594810
H    1.36549318   3.78149809  -3.93426684
H    3.00575460   4.38334554  -3.91452649
H    1.73368606   5.28805026  -3.12940529
C    2.36112581   3.54249379  -2.04571606
N    2.55829344   2.97314070  -1.07018874
C   -2.61640080   2.11419733  -0.76762538
H   -2.20361548   1.47394295  -0.01623814
H   -3.48788281   1.65634849  -1.18690171
H   -2.88276258   3.05316316  -0.32911237
C   -1.57285676   2.34323663  -1.87674973
N   -0.79589079   2.51376679  -2.70254323
C   -1.62644319  -3.16687345  -1.02209357
H   -1.72707721  -3.53259815  -0.02158449
H   -0.61959641  -2.84282668  -1.18381044
H   -1.86501266  -3.94818788  -1.71313009
C   -2.58735217  -1.98237759  -1.23475169
N   -3.30279258  -1.10046657  -1.39308533
C    1.19251476  -4.33589084  -4.44428814
H    0.12617837  -4.40657220  -4.49749569
H    1.62330725  -5.29814282  -4.62701210
H    1.54127347  -3.64316965  -5.18144742
C    1.60527177  -3.84623881  -3.04376233
N    1.91258813  -3.48167061  -2.00100721
C   -2.63899954   0.21119981  -4.68288514
H   -3.15553498  -0.07009302  -5.57673394
H   -2.17582681   1.16539745  -4.82387090
H   -3.33473374   0.26877242  -3.87199772
C   -1.56085806  -0.84014346  -4.36056811
N   -0.75813272  -1.62291631  -4.12058843
C    1.38328876  -1.83317105   6.52867257
H    1.16705765  -1.23649797   7.39013964
H    2.44175179  -1.96343095   6.44156660
H    0.91341504  -2.78914157   6.62985627
C    0.84737034  -1.12857320   5.26854031
N    0.44835472  -0.60396806   4.33031457
C   -1.89671752   2.04671488   4.83385611
H   -0.83509783   2.17814502   4.80956750
H   -2.12490295   1.00807028   4.95237997
H   -2.30562569   2.59767780   5.65491217
C   -2.50771883   2.55945168   3.51651850
N   -2.96263707   2.94120753   2.53570077
Na   0.30251576  -0.49918724   1.92679525
