73
Energy:   -663.80631329
C   -1.04428066   2.27545129   3.11230901
H   -1.17863346   2.83135222   2.20797298
H   -0.23299021   2.69354797   3.67079093
H   -1.94004958   2.32153868   3.69572403
C   -0.72932666   0.80728882   2.77039828
N   -0.49482909  -0.28582487   2.51583020
C    0.94350197   2.38832001  -4.75332978
H   -0.10503615   2.29539298  -4.56141170
H    1.10558661   2.49257660  -5.80583072
H    1.32376337   3.25068761  -4.24675058
C    1.67204147   1.13084700  -4.24382823
N    2.21447224   0.19460119  -3.86448117
C    3.53327608   0.86027019   3.61344031
H    4.04409350   1.69383215   3.17853780
H    4.21045962   0.31103902   4.23365534
H    2.71416805   1.21289208   4.20472614
C    3.00234509  -0.05646719   2.49571723
N    2.60704283  -0.73901983   1.66352160
C   -4.12481414  -0.22742693   3.75912147
H   -4.17074085   0.65222377   3.15166318
H   -3.34858339  -0.11783792   4.48737635
H   -5.06233690  -0.36747848   4.25544366
C   -3.82657354  -1.44962525   2.87093016
N   -3.60451986  -2.35960746   2.20963135
C    2.14167840   5.60147229   0.76865259
H    1.92103468   5.59935077  -0.27834886
H    3.14724296   5.93412882   0.92056918
H    1.46758156   6.26120084   1.27387609
C    1.98217441   4.17623050   1.32976248
N    1.86341643   3.11507321   1.74753430
C   -1.36887892  -4.36626401   4.00420914
H   -1.37844747  -3.66807646   4.81497592
H   -0.99295079  -5.30714866   4.34817600
H   -2.36384917  -4.49426693   3.63198803
C   -0.46414787  -3.83273214   2.87797406
N    0.20946553  -3.43549341   2.03944084
C    3.92973306  -2.57182909  -2.84210726
H    4.73005578  -1.95423225  -2.49145378
H    3.60939684  -2.22871647  -3.80364641
H    4.26775573  -3.58411404  -2.91904182
C    2.75240923  -2.49759878  -1.85215853
N    1.87583813  -2.44233094  -1.11509671
C   -0.44436001  -2.08335300  -3.94770674
H   -0.18308698  -2.56544454  -3.02888993
H    0.44291301  -1.88839134  -4.51307002
H   -1.09424770  -2.71917397  -4.51186699
C   -1.16205656  -0.75499137  -3.64444606
N   -1.69641427   0.23403424  -3.41865470
C    3.93023936   1.16979751  -0.99206036
H    4.73907273   0.93301865  -1.65132096
H    3.22719880   0.36320177  -0.98602892
H    4.30888589   1.32030237  -0.00267965
C    3.23300760   2.45486478  -1.47586818
N    2.71388687   3.41165577  -1.83608509
C   -2.92629827  -4.53475011  -0.43347443
H   -3.38432622  -4.70027810  -1.38621315
H   -3.68532811  -4.40590174   0.30960759
H   -2.31757218  -5.37718176  -0.17919003
C   -2.05075380  -3.26948480  -0.49770507
N   -1.39887115  -2.32743726  -0.54552770
C   -4.29364829  -0.42896612  -1.03037288
H   -3.56293560  -0.77915596  -1.72917630
H   -5.09068180   0.05144807  -1.55842485
H   -4.68187270  -1.25717081  -0.47516309
C   -3.63944180   0.57560557  -0.06370356
N   -3.15235533   1.32355486   0.65602569
C   -0.76447714   2.88860190  -1.27730361
H   -1.34005833   3.27723258  -0.46331794
H   -1.40698686   2.70566113  -2.11313436
H   -0.01304753   3.59842956  -1.55370430
C   -0.09283251   1.57093864  -0.84805191
N    0.40723744   0.58987844  -0.52845451
Na   0.54166660  -1.48977190   0.64949889
