73
Energy:   -663.50168529
C    4.37813374   0.72934939   3.02452995
H    3.68415012   1.49276178   3.30823479
H    5.12319523   1.14639592   2.37966201
H    4.84681051   0.33025123   3.89972241
C    3.63007427  -0.39522803   2.28471060
N    3.07310999  -1.23252703   1.73388147
C   -4.96519832  -0.89868716   3.35133556
H   -5.08720815  -0.10628380   2.64273786
H   -4.65313122  -0.49226916   4.29066385
H   -5.89574980  -1.41188302   3.47624768
C   -3.89943830  -1.88547708   2.83947501
N   -3.10593152  -2.62018704   2.45837156
C    4.37757581   1.64801363  -3.20674096
H    4.14646392   2.64154296  -2.88365127
H    3.87229795   1.44595384  -4.12802551
H    5.43376728   1.55673800  -3.35174934
C    3.91729958   0.64025602  -2.13708195
N    3.57460300  -0.11006532  -1.34067220
C   -2.29825488  -1.30488176  -0.58882456
H   -1.88299646  -0.99362871   0.34690092
H   -1.73068013  -2.12532493  -0.97564622
H   -3.31358527  -1.61014717  -0.44454598
C   -2.25148307  -0.13267253  -1.58649080
N   -2.21665934   0.74009052  -2.32929866
C    0.78049330   2.91445720   0.24352571
H    1.61287412   3.26534658  -0.32998888
H    0.89999891   3.21189516   1.26438229
H   -0.12343954   3.33351986  -0.14659093
C    0.71147584   1.37821076   0.16116384
N    0.66008921   0.23440546   0.09984169
C   -0.19097743  -1.03282695   3.38000010
H    0.58485851  -1.76965371   3.38806808
H   -0.75242117  -1.11598392   2.47293619
H   -0.83965793  -1.18874732   4.21654151
C    0.43407420   0.37174794   3.46988806
N    0.89945354   1.41751779   3.53681373
C   -1.09440308  -5.14719442   1.68149138
H   -1.22073698  -4.98008431   2.73078359
H   -0.61742629  -6.09224898   1.52572197
H   -2.05125775  -5.14737348   1.20260915
C   -0.22190973  -4.02727624   1.08471786
N    0.42770123  -3.19344626   0.64039285
C    0.12213546  -0.46873285  -4.77340622
H    0.88256265   0.22141170  -5.07399095
H   -0.79018955   0.06116091  -4.59515139
H   -0.03040027  -1.19099759  -5.54798067
C    0.56029298  -1.18515593  -3.48253212
N    0.88652116  -1.71856549  -2.52141767
C   -1.89069765   3.56329846   2.92309481
H   -2.65431405   3.93732438   3.57262910
H   -1.72401517   4.26139694   2.12951145
H   -0.98499298   3.43008014   3.47703616
C   -2.33509750   2.21197314   2.33315528
N   -2.66597340   1.20585001   1.89391848
C    5.30825340  -5.44455499  -1.35638169
H    6.19314027  -5.00473534  -1.76678890
H    4.91304540  -6.16075839  -2.04613702
H    5.54685170  -5.93164235  -0.43403910
C    4.26007682  -4.34572536  -1.10045342
N    3.47966171  -3.52759674  -0.90990319
C   -4.73907957   2.54790644  -0.90921985
H   -4.71948488   2.15864628  -1.90571007
H   -5.63162311   3.12079701  -0.76758119
H   -4.72003280   1.73847591  -0.20967820
C   -3.51009671   3.44859242  -0.68568931
N   -2.59506311   4.11919406  -0.51926066
C   -1.06973678   3.81559434  -3.59385686
H   -1.12731651   4.60940219  -2.87869684
H   -1.93594244   3.19350453  -3.50672985
H   -1.02390408   4.22705885  -4.58051557
C    0.19386103   2.97624592  -3.32849898
N    1.13466703   2.35131287  -3.13092799
Na   2.01093707  -1.70511717  -0.39084201
