73
Energy:   -663.78813335
C    3.57021498  -1.34135035   4.54886559
H    3.68698152  -0.35728210   4.95244387
H    4.09223454  -2.04364186   5.16464258
H    2.53097162  -1.59455839   4.52133364
C    4.14657512  -1.38246800   3.12137887
N    4.57570145  -1.41308196   2.05855012
C   -1.03821784   0.34261522  -3.38529045
H   -1.33141150   1.37161567  -3.39507452
H   -1.76300363  -0.23981148  -3.91478435
H   -0.08363063   0.23923792  -3.85749323
C   -0.94698026  -0.15133200  -1.92951167
N   -0.87904974  -0.51909816  -0.84561820
C   -0.40514307   6.61597638   0.12103301
H    0.13625952   7.39274332  -0.37738103
H   -0.83629744   7.00251846   1.02080532
H   -1.18187768   6.25466772  -0.52008982
C    0.55410084   5.46169335   0.46611534
N    1.26830153   4.60227717   0.72304482
C   -1.42854160   2.27544379   1.28989566
H   -0.52000489   2.62235712   1.73611575
H   -1.43510497   1.20551182   1.27981675
H   -2.26311256   2.63191263   1.85674693
C   -1.52555080   2.80300245  -0.15366628
N   -1.59777856   3.19579385  -1.22846376
C    3.22543583   1.94151377   1.34679812
H    4.17408053   1.44895676   1.39538836
H    3.17032717   2.68581593   2.11352911
H    3.11360339   2.40650722   0.38962850
C    2.10036499   0.90994413   1.55095412
N    1.26269861   0.14189364   1.70295755
C    3.48349474  -4.98818534   1.57463282
H    4.38617775  -4.42292903   1.47192521
H    3.25967236  -5.47426423   0.64806390
H    3.60837653  -5.72333492   2.34200413
C    2.32670439  -4.04407412   1.95158121
N    1.46542139  -3.34114040   2.23223642
C    4.40330246  -0.85007854  -1.38287972
H    4.27869856   0.21239269  -1.40587819
H    4.70650548  -1.19463692  -2.34944402
H    5.15159533  -1.10591359  -0.66211255
C    3.06926852  -1.51512634  -0.99601428
N    2.07601961  -2.01028466  -0.70797538
C   -0.62025908  -4.27075301  -3.04760013
H   -0.74747007  -5.32171444  -3.20315595
H    0.31770463  -3.96035110  -3.45842104
H   -1.41416705  -3.74008224  -3.53029855
C   -0.64450298  -3.96866955  -1.53771344
N   -0.66255366  -3.74375468  -0.41353417
C    1.48931587   4.04808070  -2.76425176
H    2.04803959   4.72766377  -2.15524041
H    0.44707053   4.27944963  -2.69289242
H    1.80587210   4.13861154  -3.78233595
C    1.72962166   2.60669149  -2.27819593
N    1.90854023   1.53351171  -1.91630526
C   -3.91279310  -0.60805243   3.49793021
H   -4.71964909  -0.52296899   2.80033118
H   -3.69702872   0.35434579   3.91282114
H   -4.18920195  -1.28091257   4.28263173
C   -2.66423871  -1.14722835   2.77543367
N   -1.73463321  -1.54866933   2.23750215
C   -4.57450023   1.34109551  -2.26218857
H   -4.39510930   0.51559077  -2.91889322
H   -3.89253913   2.13333235  -2.49063752
H   -5.57889938   1.68703398  -2.39028239
C   -4.36861897   0.89108281  -0.80386711
N   -4.21533102   0.55602790   0.28191950
C   -4.22722842  -2.98685818  -0.09877747
H   -3.36108221  -3.28695913   0.45315580
H   -4.89017588  -3.82024695  -0.20300287
H   -4.72643334  -2.19702716   0.42262496
C   -3.80120007  -2.49224569  -1.49357435
N   -3.48400260  -2.12398421  -2.53206402
Na   0.18806999  -1.84383856   0.84007197
