73
Energy:   -666.24741283
C    0.77464043   2.40981446   4.03413372
H    0.80341399   3.20257538   4.75218830
H    1.50637551   2.58989957   3.27450735
H    0.98644934   1.48043647   4.52023312
C   -0.62477251   2.34725286   3.39434509
N   -1.66669905   2.30067291   2.91799338
C   -0.37965731  -1.57703343  -3.32667902
H   -0.20198566  -0.88636472  -4.12436925
H   -0.17359109  -2.57153485  -3.66343224
H    0.25879603  -1.34050115  -2.50125253
C   -1.85085117  -1.48017095  -2.88192482
N   -2.94622187  -1.40805244  -2.55078510
C   -3.59610750  -4.28755832  -0.86770429
H   -4.26830517  -3.72055468  -1.47725933
H   -4.06574704  -5.20360234  -0.57581194
H   -2.70720658  -4.50354276  -1.42277633
C   -3.23206766  -3.47434351   0.38838355
N   -2.96102345  -2.86886812   1.32359804
C    3.14788624  -1.40449761   4.08551641
H    2.31071706  -1.42398877   4.75160053
H    4.00858460  -1.03819419   4.60505393
H    3.34179494  -2.39394084   3.72732569
C    2.83493766  -0.47958773   2.89463233
N    2.60193322   0.20904971   2.00796499
C   -1.26123459   4.39496473   0.13067376
H   -1.10103472   5.30884848   0.66363968
H   -2.06950427   3.85689359   0.58020538
H   -1.50180944   4.61400450  -0.88866151
C    0.01775171   3.53882044   0.18369268
N    0.97001514   2.90138210   0.22316767
C    0.51814817   3.16204959  -4.16555805
H   -0.02675311   3.86827163  -3.57459850
H   -0.13423768   2.72800735  -4.89418630
H    1.32566845   3.65934229  -4.66104776
C    1.07912207   2.05458239  -3.25428164
N    1.49679263   1.23002272  -2.57579493
C   -2.80000545   0.33678444   0.52393084
H   -3.03290707   0.05622044   1.52988356
H   -3.39544507  -0.23859438  -0.15377851
H   -3.00819399   1.37730636   0.38655998
C   -1.30817477   0.07112803   0.24921665
N   -0.19743902  -0.12666525   0.04467945
C   -2.95187101  -0.93780125   4.33403570
H   -3.17974356  -1.13235030   5.36122845
H   -3.41324057  -1.68210880   3.71918330
H   -3.32286598   0.02859953   4.06323808
C   -1.42591944  -0.97744433   4.13031963
N   -0.28977914  -1.00696040   3.97864375
C    0.50179838  -3.24701651   1.58109871
H    0.73488345  -2.20530530   1.65464646
H    1.32626800  -3.82356912   1.94542825
H   -0.36847734  -3.45994361   2.16606137
C    0.23225617  -3.61004198   0.10897116
N    0.03156974  -3.88033094  -0.98709471
C   -4.59820814   1.48732767  -3.19428883
H   -4.91564448   0.64527529  -2.61542603
H   -4.54800197   1.21171548  -4.22696320
H   -5.29752043   2.28795694  -3.07241104
C   -3.20710707   1.94362233  -2.71655147
N   -2.17136909   2.28335443  -2.36085428
C    6.56522798   3.01102908  -0.66095345
H    6.47047692   4.02792102  -0.34180896
H    6.93423946   2.98522372  -1.66497720
H    7.24778438   2.49716390  -0.01678077
C    5.18812456   2.32418578  -0.60236628
N    4.16280847   1.81279972  -0.55874546
C    3.21017191  -3.51545675  -2.55129095
H    2.31415398  -4.09811562  -2.60189427
H    4.00668271  -4.11861216  -2.16831158
H    3.46523689  -3.16766593  -3.53051640
C    2.98628449  -2.30932728  -1.62030968
N    2.81959014  -1.41130906  -0.92715181
Na   2.02013863   0.76645006  -0.25738252
