73
Energy:   -663.36056924
C    1.35327683   2.48832856  -3.09915872
H    1.46342554   2.00971624  -4.04978887
H    2.31352073   2.79654137  -2.74161766
H    0.71943941   3.34422556  -3.20206424
C    0.72496258   1.50172287  -2.09744499
N    0.25715406   0.76715008  -1.35162358
C   -3.45627984  -1.11107858   3.76179272
H   -3.23051396  -2.09784603   4.10852023
H   -4.42732197  -0.82477178   4.10820964
H   -2.72662571  -0.42504320   4.13843498
C   -3.43379563  -1.09031697   2.22209683
N   -3.41705511  -1.07485900   1.07572326
C    0.22310970   2.85967944   3.07767159
H    1.01948520   3.29028642   2.50735249
H    0.63136381   2.25502726   3.86037422
H   -0.37288739   3.63965164   3.50350011
C   -0.65286772   1.98759595   2.15912167
N   -1.30507273   1.33829016   1.47521950
C   -3.09361181  -4.53648929   0.36663648
H   -2.77123880  -3.80302445  -0.34259209
H   -4.14692023  -4.43845158   0.52735074
H   -2.87982689  -5.51493633  -0.00997537
C   -2.34930036  -4.32499867   1.69812894
N   -1.79512665  -4.16753429   2.68948561
C    1.60380426  -3.38574874   1.43202686
H    2.07324830  -2.76954259   2.17014098
H    2.32902774  -3.68703982   0.70527127
H    1.18893665  -4.25259341   1.90252051
C    0.48147332  -2.59138128   0.73851868
N   -0.35415308  -1.99993860   0.22217032
C   -3.02617871   4.40900325  -0.72240048
H   -2.63870819   4.56111373   0.26331204
H   -4.05409233   4.70475046  -0.75114534
H   -2.46646918   4.99613412  -1.42018389
C   -2.90998251   2.91939076  -1.09543274
N   -2.82346915   1.81030655  -1.37317221
C    4.27965840   0.00688617  -2.89414499
H    4.41545484   0.97093565  -2.45022146
H    3.62675177   0.09139627  -3.73763184
H    5.22672719  -0.37551409  -3.21309617
C    3.66083834  -0.95188700  -1.86001939
N    3.20009868  -1.66573720  -1.09006588
C   -2.48634558  -0.17628838  -4.91996824
H   -2.93730713   0.79170535  -4.85272249
H   -3.08873142  -0.80819939  -5.53861100
H   -1.50937914  -0.08574350  -5.34686084
C   -2.37641390  -0.79031431  -3.51196001
N   -2.29456477  -1.24748453  -2.46363388
C    2.60306383   5.64855113  -0.33372253
H    2.47474584   6.50531382  -0.96172918
H    3.35198182   5.00883413  -0.75179322
H    2.90783023   5.96411402   0.64220605
C    1.27122560   4.88199153  -0.23276057
N    0.27961150   4.31125307  -0.15758980
C    0.69752277  -3.22838711  -3.03004640
H    1.55279223  -3.42905706  -2.41918971
H    0.57931590  -4.01359838  -3.74724198
H   -0.17570867  -3.17346632  -2.41413272
C    0.89350444  -1.88849765  -3.76345448
N    1.03942170  -0.89088904  -4.30951013
C   -0.04216701  -2.99982125   5.30525014
H    0.22820831  -3.87485044   4.75196785
H   -1.06116579  -3.07879734   5.62195718
H    0.59181029  -2.90982870   6.16249761
C    0.12283806  -1.75628660   4.41194454
N    0.24569184  -0.83041853   3.74683791
C    2.57701415   0.38504793   1.55005417
H    2.60580467   0.76754885   2.54893571
H    3.22463321  -0.46332326   1.47419266
H    1.57641693   0.09263909   1.30880458
C    3.04360283   1.47640492   0.56881266
N    3.39099931   2.28896981  -0.16176625
Na  -1.74651148  -0.13652147  -0.38856736
