73
Energy:   -663.99965957
C   -1.54332409   1.56255248   6.06902042
H   -0.55028953   1.20752858   6.24996396
H   -2.23167644   0.74607762   6.13564588
H   -1.79609413   2.30266130   6.79925690
C   -1.61803895   2.18343260   4.66170895
N   -1.67366756   2.64570607   3.61390160
C   -1.17083896   5.46905963   1.61455082
H   -1.86534303   5.13131725   2.35515488
H   -1.66825159   6.12681263   0.93275850
H   -0.36698121   5.99045650   2.09084602
C   -0.61232320   4.25805968   0.84439547
N   -0.19648282   3.35641518   0.27097981
C    1.35367796  -3.51149279  -1.80961743
H    0.54893974  -3.56316458  -2.51291439
H    1.20890214  -4.24814772  -1.04720116
H    2.27964525  -3.69632365  -2.31292771
C    1.38756773  -2.11087086  -1.17031336
N    1.41280021  -1.06804417  -0.69432242
C    2.83588821  -2.59032519  -5.93398382
H    2.56305534  -3.52565956  -6.37626430
H    3.65691819  -2.73858641  -5.26403794
H    3.12203157  -1.90256261  -6.70210080
C    1.63505949  -2.02062054  -5.15613614
N    0.74098792  -1.59644954  -4.57699319
C    1.95290738   2.67151169   3.84908758
H    1.13892351   3.36379508   3.79364252
H    2.85950542   3.20245057   4.05177695
H    1.76920491   1.96704877   4.63323329
C    2.08400665   1.92488468   2.50857980
N    2.18161602   1.36898693   1.51051084
C   -4.09248485  -3.67741198  -0.21639244
H   -4.66550948  -3.04691911   0.43092641
H   -4.29655055  -4.70264383   0.01198430
H   -4.35761899  -3.47904677  -1.23386687
C   -2.59245806  -3.39478006  -0.01233652
N   -1.47561993  -3.18434775   0.13959238
C    1.62144477  -2.20792201   2.57788249
H    2.36181733  -1.68569845   2.00864510
H    0.83222929  -2.52662403   1.92944819
H    2.06677412  -3.06185720   3.04411801
C    1.05079969  -1.27181090   3.65939077
N    0.62592849  -0.57483362   4.46462285
C    4.82732557   0.11780727  -0.78124700
H    4.19999918  -0.21397128   0.01955558
H    4.70296463   1.17163911  -0.91862197
H    5.84931627  -0.09286548  -0.54449588
C    4.43829009  -0.61819977  -2.07683375
N    4.14863549  -1.16619047  -3.04145698
C    2.24855396   1.53856182  -4.74845383
H    3.00968834   0.81580215  -4.95628332
H    2.50067053   2.46684589  -5.21709550
H    1.31163427   1.18950706  -5.12955928
C    2.13869381   1.74513860  -3.22633137
N    2.05689793   1.89894440  -2.09304201
C   -3.67343293   2.29497992   0.02039891
H   -3.18809845   2.43666856   0.96341267
H   -4.57239477   2.87456504  -0.00871795
H   -3.02091389   2.60903388  -0.76731176
C   -4.01725898   0.80487927  -0.16121526
N   -4.27325310  -0.30456839  -0.29643527
C   -2.25549091  -1.39572527  -3.09236812
H   -2.21213627  -1.33042479  -4.15949342
H   -3.27782022  -1.42909308  -2.77831645
H   -1.75378128  -2.28365551  -2.76869170
C   -1.56858478  -0.16372647  -2.47435605
N   -1.05715195   0.75355264  -2.01421797
C   -2.60797024  -1.08998490   2.87834704
H   -3.62019727  -0.89574666   2.59100034
H   -2.45373117  -0.76176231   3.88501447
H   -2.41356828  -2.14007213   2.81183543
C   -1.65290077  -0.33059599   1.93878822
N   -0.94180813   0.23480357   1.23924397
Na   0.61074537   1.17123941  -0.32526796
