73
Energy:   -665.17209503
C    4.39774250  -3.20737203  -2.42930480
H    3.55950818  -3.77161549  -2.78128877
H    4.98873327  -3.81584316  -1.77708406
H    4.99256597  -2.89514230  -3.26212935
C    3.89748638  -1.96891488  -1.66277516
N    3.52502296  -1.04682724  -1.09205900
C   -4.89085329  -0.58431792   0.02296836
H   -4.93745566  -1.50589230   0.56465929
H   -4.77056064  -0.78948982  -1.02026376
H   -5.79579183  -0.03433389   0.17627491
C   -3.69447506   0.24579005   0.52416681
N   -2.80371709   0.86384316   0.89733184
C   -2.28548761  -3.55144659  -2.28644118
H   -1.42536197  -3.04751219  -2.67520097
H   -3.16131576  -3.20619809  -2.79499562
H   -2.17884561  -4.60565319  -2.43535399
C   -2.41637274  -3.25636520  -0.78065366
N   -2.51382267  -3.03666370   0.34047359
C    0.68073704  -0.75234660  -3.05297350
H    1.57872390  -0.18234082  -3.16964912
H   -0.06079514  -0.39342599  -3.73576564
H    0.88361780  -1.78309160  -3.25620548
C    0.16356171  -0.60580367  -1.60983288
N   -0.22149882  -0.49669580  -0.53534910
C    1.04823777  -3.39349379   1.15977581
H    1.88398959  -2.77444524   1.41116788
H    1.10971024  -4.31345674   1.70272001
H    0.14040457  -2.88827967   1.41569893
C    1.06350672  -3.68753321  -0.35181530
N    1.07487514  -3.90645891  -1.47726359
C    1.09950514   5.34442006   2.53327933
H    1.08111652   5.89146982   3.45268056
H    0.15090776   4.87399741   2.37912146
H    1.30119689   6.01428493   1.72364943
C    2.20095872   4.27002772   2.59716291
N    3.02104097   3.47009379   2.64472713
C    4.44281459   0.41378396   1.88937757
H    4.71698874   0.59045527   0.87030153
H    4.96017251  -0.44916938   2.25345365
H    4.70675892   1.26443820   2.48235300
C    2.92371485   0.17721046   1.97864668
N    1.79267605   0.00107073   2.04511159
C    1.43417151   1.83611009   5.57487138
H    1.52616517   0.81373305   5.87683587
H    1.09420091   2.42318947   6.40231134
H    2.38633300   2.19845726   5.24777490
C    0.42067035   1.94110441   4.42014562
N   -0.33392733   2.01927746   3.56039980
C   -3.01156766  -2.99836090   3.81156449
H   -3.89373934  -2.52477073   4.18890473
H   -2.58014379  -3.60987923   4.57629835
H   -3.26608481  -3.60717874   2.96926944
C   -1.99651152  -1.92360298   3.38010600
N   -1.24075608  -1.12339685   3.05886554
C    2.60944934   2.60170578  -1.21459863
H    3.03923276   1.62402030  -1.28030627
H    3.32396057   3.27785341  -0.79365069
H    2.33444170   2.93690242  -2.19281798
C    1.35832364   2.55326218  -0.31797291
N    0.42680368   2.51719372   0.34960570
C   -2.73346746   0.67110076  -5.53394347
H   -2.57417081  -0.13657081  -6.21745746
H   -1.88843435   1.32716475  -5.55389793
H   -3.61162209   1.21181727  -5.81919631
C   -2.91506564   0.11107380  -4.11092137
N   -3.05027375  -0.30589174  -3.05141673
C   -2.49928615   3.15821422  -1.66059991
H   -3.25761612   2.40364841  -1.68219304
H   -2.90269773   4.07983231  -2.02498747
H   -2.15706051   3.29128755  -0.65557643
C   -1.31979373   2.72625695  -2.55156038
N   -0.44160801   2.40464512  -3.21492094
Na  -0.50984721   0.63104514   1.58036743
