73
Energy:   -663.80066707
C    3.85433716   2.47990633   2.61286874
H    4.31891132   2.83700744   1.71757559
H    4.60817490   2.18774643   3.31377554
H    3.25425487   3.25723264   3.03779714
C    2.96440314   1.26766859   2.28105993
N    2.30180681   0.36510248   2.03401320
C    3.47314685   1.97075607  -3.52979152
H    4.24323028   2.56927106  -3.96985005
H    2.51698014   2.32477028  -3.85431925
H    3.59730680   0.95166058  -3.83133384
C    3.56227033   2.06656195  -1.99536060
N    3.62862681   2.13789379  -0.85290704
C    1.89161934  -3.84366600   5.14284733
H    2.65192026  -3.42299754   5.76725164
H    2.33547728  -4.53388630   4.45619957
H    1.17450658  -4.35574230   5.74982858
C    1.19063581  -2.71870375   4.35883073
N    0.66872170  -1.88111823   3.77509473
C   -3.87272552  -2.22848953   3.02053893
H   -4.59222303  -1.63839763   2.49232016
H   -3.66198231  -1.77255195   3.96531791
H   -4.26450025  -3.21158929   3.17842024
C   -2.57663460  -2.31906142   2.19377110
N   -1.61163599  -2.38649632   1.57820487
C    0.59282502   3.33919076   0.14707005
H    1.45896190   3.95255219   0.28306583
H    0.76375233   2.37834905   0.58577969
H   -0.24926005   3.80166303   0.61814458
C    0.31220036   3.17368797  -1.35807400
N    0.10326255   3.05046361  -2.47872217
C    4.86620756  -1.11232481   0.15657787
H    5.03421345  -0.07121483   0.33758678
H    5.80511919  -1.62428882   0.12140843
H    4.26737871  -1.51923431   0.94444065
C    4.13493839  -1.28825425  -1.18725777
N    3.59047526  -1.41924171  -2.18780449
C    1.39002415  -4.16882991  -1.69288652
H    2.07727789  -4.98858750  -1.71696927
H    1.62204428  -3.48555743  -2.48295264
H    0.39286980  -4.53553229  -1.81981827
C    1.50211402  -3.44461481  -0.33843153
N    1.58557002  -2.90540374   0.67002179
C    0.52125837  -0.37211406  -3.40742897
H    1.49195543  -0.70941350  -3.70555056
H    0.33085550   0.58981726  -3.83560415
H   -0.21788625  -1.06676955  -3.74804323
C    0.46203363  -0.27133222  -1.87187192
N    0.41793812  -0.19629555  -0.72857990
C   -2.87160056   5.27697675  -2.66111814
H   -2.76338761   6.31034501  -2.40550091
H   -3.78875580   5.13546326  -3.19375243
H   -2.05092360   4.97414684  -3.27730193
C   -2.88848975   4.42921977  -1.37557435
N   -2.90106452   3.79802616  -0.41842856
C   -3.86845860  -3.79132458  -0.90122493
H   -4.41503424  -4.36855088  -1.61744071
H   -4.49845703  -3.02065309  -0.50871183
H   -3.54353749  -4.42688690  -0.10411396
C   -2.64271281  -3.15500528  -1.58258020
N   -1.73008935  -2.68123663  -2.08988016
C   -3.35233861   2.25029488   2.49413305
H   -3.73374467   2.04211414   3.47193179
H   -4.08077731   1.97369760   1.76080495
H   -3.13987627   3.29554785   2.40925036
C   -2.06077644   1.44362846   2.26444529
N   -1.09914970   0.84302865   2.09343231
C   -2.92178767   0.78944548  -2.06769499
H   -2.06698570   1.36345682  -1.77661982
H   -3.62989690   1.42637152  -2.55534818
H   -2.61852554   0.01341400  -2.73904163
C   -3.56938748   0.16350500  -0.81853008
N   -4.05155498  -0.30253615   0.11152998
Na   0.37455433  -0.99208066   1.54108118
