30
Energy:   -381.59872939
O   -1.96474942  -1.61123515  -2.34512027
H   -1.08126133  -1.29629895  -2.53615911
H   -2.39993493  -0.86726067  -1.92877018
O    2.37696996   0.28228645   1.25192278
H    1.79219590   0.77170915   1.83048701
H    1.93083399  -0.55265285   1.11025095
O   -1.73418957   0.82170490  -0.76038187
H   -0.95924464   0.44080989  -1.17343296
H   -1.74359260   0.44943355   0.12141032
O   -1.02395163  -3.56944292  -0.70263446
H   -1.15610989  -4.42192074  -1.11742066
H   -1.45711274  -2.94806846  -1.28786696
O   -0.03982254   2.83773311   0.07413263
H    0.73515474   2.59608207  -0.43306244
H   -0.74687953   2.31518671  -0.30434791
O    0.49256425  -0.36351788  -1.79698803
H    1.15430396   0.32460608  -1.72757749
H    0.63020285  -0.90790186  -1.02178899
O   -1.35932078  -0.17702518   1.79851343
H   -1.97210109  -0.40976463   2.49605517
H   -0.81419230   0.51219528   2.17804202
O    0.39735866   1.79609768   2.50529613
H    0.23849749   2.26360193   1.68527494
H    0.54087723   2.48732324   3.15170273
O    0.54711507  -1.73046881   0.57449078
H   -0.14540017  -1.28717540   1.06453716
H    0.12502477  -2.51081517   0.21514250
O    2.21575953   1.65725861  -1.05918982
H    2.39462685   1.18825467  -0.24415998
H    3.07676105   1.94017740  -1.36719175
