30
Energy:   -385.06995722
O    2.02988305   0.02462897  -1.36648667
H    2.18426543   0.77411667  -0.79145091
H    2.77785359   0.02233318  -1.96378614
O    1.91661757   0.43520782   2.63520367
H    2.18145436   0.44030987   3.55502284
H    0.97381187   0.59927004   2.65600866
O    2.21254671   2.04120314   0.39920515
H    2.25215158   1.57797784   1.23591635
H    1.33950687   2.43334259   0.38308225
O   -1.08728016  -1.17176982   0.59529550
H   -1.01615843  -0.54926898  -0.12835238
H   -0.19599304  -1.49785349   0.71982883
O    1.57308801  -1.63652684   0.81787751
H    1.83275282  -1.19523826   0.00913130
H    1.81594780  -1.02535346   1.51337595
O   -0.67501595   0.56815046  -1.46553113
H    0.23983296   0.32810844  -1.61271520
H   -1.16192305   0.07367056  -2.12480569
O   -2.62486099  -2.79805678  -0.96155685
H   -3.23563784  -3.30655439  -0.42806490
H   -2.09118904  -2.32077351  -0.32624057
O   -0.71876363   0.88646202   2.38228477
H   -0.75193929   1.60749945   1.75360659
H   -0.99342967   0.11845175   1.88133502
O   -2.08502154  -1.13297922  -3.05823006
H   -2.34077948  -1.76643652  -2.38774399
H   -2.21880409  -1.59328331  -3.88675539
O   -0.49587244   2.67334438   0.26288706
H   -0.65016975   2.01873922  -0.41822694
H   -1.01162211   3.43152834  -0.01168754
