30
Energy:   -380.97213325
O    2.11617127   0.47519099   3.30574755
H    2.54611518   1.08703574   3.90326414
H    2.77151130   0.29832216   2.63085592
O    3.77562117   0.04271858   1.18027181
H    3.10742886   0.10491692   0.49771614
H    4.32921164  -0.68922267   0.90818461
O   -1.60552591  -1.51422207   1.31382999
H   -2.18582693  -1.99374431   1.90504992
H   -2.19679885  -1.05514917   0.71727301
O    1.57537051   0.12085837  -0.46313710
H    1.03762308   0.37086138   0.28823368
H    1.22201033   0.63140536  -1.19163570
O    0.00319274   1.38979314  -2.36758825
H    0.04739187   1.91648622  -3.16563128
H   -0.53599008   0.63602841  -2.60707198
O   -1.57059477   2.13760554  -0.18852345
H   -1.04386520   1.83910786   0.55288530
H   -0.99709381   2.03335437  -0.94777320
O   -3.02194866  -0.14577752  -0.51629160
H   -2.68569126   0.73964595  -0.37777053
H   -2.66214078  -0.40936441  -1.36322259
O   -0.01875075   0.72467043   1.63499858
H    0.63306878   0.66170415   2.33313782
H   -0.53988444  -0.07366456   1.72051329
O   -1.48859195  -0.89458817  -2.72017194
H   -1.76262889  -1.51947298  -3.39148005
H   -0.95190277  -1.40957570  -2.11769006
O    0.01993313  -2.10597926  -0.86103530
H    0.69610494  -1.44096085  -0.73152062
H   -0.49604926  -2.08372547  -0.05512042
