30
Energy:   -384.26671700
O    1.31166068  -2.76325218  -1.29950251
H    1.78025017  -1.96846013  -1.55437763
H    1.77166915  -3.46915246  -1.75373687
O    2.42276058  -0.36962078  -1.82915880
H    1.68275447   0.16191553  -2.12257312
H    2.60930913  -0.05399176  -0.94495870
O   -3.20810662   0.76260053   2.24558817
H   -2.52560437   0.16851667   1.93335925
H   -3.99859107   0.22382352   2.27853536
O    2.49235574   0.43064339   0.82543160
H    3.08845211   0.95441543   1.36074816
H    1.70671362   0.97110232   0.74235064
O    0.11947935   1.69150739   0.33150020
H    0.01732268   1.61153862  -0.61686727
H   -0.58604559   2.27999861   0.60009747
O   -1.14632351  -0.60760875   1.07621360
H   -0.42939412  -1.18690154   1.33440722
H   -0.71830861   0.21864590   0.85185152
O   -2.07653769   3.02867674   1.22186214
H   -2.33359507   3.77829809   1.75872448
H   -2.55850937   2.29025974   1.59425372
O   -0.00098069   0.91812386  -2.31097734
H   -0.41821076   1.24818267  -3.10672360
H   -0.45797074   0.09840489  -2.12268833
O   -1.09891547  -1.41062421  -1.54793761
H   -0.36813061  -2.02858049  -1.53017860
H   -1.27556910  -1.22131450  -0.62642409
O    1.18501015  -1.97709526   1.36325610
H    1.25941469  -2.40804664   0.51180045
H    1.75342105  -1.21001651   1.29447326
