30
Energy:   -382.39625643
O    1.32869528  -1.46961190  -0.66071054
H    0.79429960  -1.54926875   0.12942102
H    0.72583489  -1.66284788  -1.37865974
O    1.75220656   0.61855514   2.99520430
H    2.32328078   0.92299004   3.70048826
H    2.34821158   0.41753393   2.27367791
O   -2.58063312   1.29289046  -0.16313776
H   -1.84061030   1.45299280   0.42249464
H   -3.22373905   1.96079550   0.07466354
O   -1.03604260   1.17714612  -2.48562129
H   -1.68356790   1.28667319  -1.78924018
H   -0.99057404   0.23115605  -2.62442775
O   -0.22861721   1.41345235   1.26036229
H    0.39645274   1.37163879   1.98408257
H    0.31630643   1.47685841   0.47597097
O    3.22905222   0.13243071   0.76963605
H    2.92559183  -0.65769699   0.32259930
H    2.99592624   0.84760992   0.17768773
O   -2.41780365  -1.48193112  -0.23609400
H   -2.66202738  -0.55728274  -0.19594421
H   -1.81035354  -1.60162165   0.49391311
O   -0.28112160  -1.29658453   1.54796920
H   -0.31110524  -0.34210032   1.48245031
H    0.15588526  -1.46624046   2.38251921
O   -0.83279127  -1.60057472  -2.40758572
H   -1.45357494  -1.64337817  -1.68024306
H   -1.17248966  -2.22357530  -3.05000857
O    1.24676547   1.24205354  -0.99916697
H    0.55716714   1.40377438  -1.64300886
H    1.33124274   0.28896844  -0.97225563
