30
Energy:   -381.06045203
O    0.03298221   0.20368119  -3.44068426
H   -0.85606892   0.35368689  -3.11925274
H    0.27071500  -0.65711304  -3.09608556
O    0.71293538   2.47358838   1.27785798
H    1.07906956   3.35623768   1.33360578
H    0.86721356   2.20656758   0.37169575
O   -1.88260814   1.50520050   1.46824942
H   -1.06521309   2.00198269   1.50436925
H   -1.99942990   1.30249400   0.54008209
O   -1.53359220  -2.01620013  -0.15289528
H   -1.42333885  -1.76363913   0.76377750
H   -2.24670927  -2.65461486  -0.14182650
O   -1.62709226   0.57617603  -1.09465117
H   -0.69673487   0.80027608  -1.07352904
H   -1.65599258  -0.35111328  -0.85900069
O    1.06398537   1.28041719  -1.16549211
H    1.63534679   0.56640280  -0.88271759
H    0.88603628   1.09460987  -2.08746913
O   -1.25960039  -0.94221364   2.36545312
H   -1.63147358  -1.08083941   3.23650138
H   -1.55584978  -0.06729170   2.11449545
O    1.36568553  -0.08708386   2.16952619
H    1.20305179   0.84544490   2.02749721
H    0.49808502  -0.46146043   2.32231160
O    0.62470520  -2.01039157  -1.90526984
H    1.34537894  -1.75284470  -1.33035174
H   -0.11247319  -2.16061577  -1.31346535
O    2.46312830  -0.86784975  -0.16415291
H    3.39022498  -1.06667414  -0.03303289
H    2.12918671  -0.68979455   0.71505764
