30
Energy:   -385.02784230
O    1.03377596   1.29059168  -0.26308795
H    1.84007595   1.55988807  -0.70307844
H    0.88206000   0.39561740  -0.56679033
O    3.36415771   1.55898232  -1.66994296
H    4.29305916   1.60823776  -1.44422668
H    3.25189737   0.68088664  -2.03405482
O    0.49907218  -1.27825420  -1.03856290
H   -0.41501373  -1.13897346  -1.28611020
H    0.45448042  -1.66987737  -0.16628157
O   -2.05250742   1.26639119   2.20884687
H   -1.12434234   1.08079107   2.35130395
H   -2.30923066   1.79836583   2.96205866
O    0.09522742  -2.05091198   1.57784687
H    0.16230354  -2.86472271   2.07729131
H   -0.84471383  -1.87719734   1.52719599
O    0.54443974   0.58469063   2.35316993
H    0.53071045  -0.36222142   2.21388273
H    0.87009821   0.94396056   1.52787997
O    2.82648580  -0.99396994  -2.49721496
H    2.73693919  -1.47605404  -3.31929048
H    2.02646929  -1.19611622  -2.01209404
O   -1.65525240   1.88881617  -0.46412715
H   -1.88900770   1.82907455   0.46216721
H   -0.69815155   1.90137937  -0.46978174
O   -2.46809275  -1.31093017   1.26788625
H   -2.51295861  -1.14394000   0.32643355
H   -2.49348103  -0.44142717   1.66732563
O   -2.15218614  -0.57824942  -1.38963200
H   -2.78566779  -0.54817706  -2.10658982
H   -2.02982416   0.33739879  -1.13893749
