30
Energy:   -382.30931829
O    0.05329204  -0.92598713  -2.42779721
H    0.45415281  -1.52754544  -1.80036588
H   -0.83944925  -0.80261585  -2.10526913
O    1.44226019   1.42220903   2.01155762
H    2.11701281   1.79742781   2.57737704
H    1.92185925   0.84820674   1.41428218
O   -2.30818283   1.59033432   0.42412665
H   -1.53011244   2.08632849   0.16951302
H   -2.36392691   0.88416298  -0.21964854
O   -2.35634092  -0.73517128  -1.08752845
H   -2.09484467  -1.27959161  -0.34492623
H   -3.23863154  -1.03518551  -1.30612987
O    0.15059576   2.65009056  -0.11972112
H    0.61069888   2.36001541   0.66792942
H    0.63917109   2.25549083  -0.84209017
O    2.61973825  -0.12412350   0.15136266
H    2.15592405  -0.95375659   0.03814967
H    2.41711374   0.37409480  -0.64044141
O   -1.32821206  -2.13370501   1.06377775
H   -1.77695258  -2.72194112   1.67110145
H   -1.18678656  -1.33171687   1.56681424
O   -1.00964490   0.18282344   2.34819712
H   -0.15239318   0.60837852   2.36414099
H   -1.55096680   0.75389768   1.80314973
O    1.05601496  -2.37648202  -0.28814923
H    0.25850735  -2.35016435   0.24054808
H    1.36425312  -3.27955081  -0.21273144
O    1.59286839   1.24420249  -2.02481340
H    1.01861471   0.51377675  -2.25490644
H    1.91220830   1.57242026  -2.86536499
