30
Energy:   -383.42731700
O   -0.08052901  -1.89295149  -1.90376047
H    0.47283912  -2.17401210  -1.17504894
H    0.35777536  -1.11671684  -2.25244500
O    1.41426468   1.33193244   1.86355696
H    2.13862176   1.63673224   2.41003272
H    1.83645817   0.97978575   1.07998998
O   -1.18646158   1.68307466  -1.60797530
H   -1.74222295   0.90383081  -1.59613640
H   -1.14794596   1.96428673  -0.69382643
O   -2.44866674  -0.69235848  -1.25177715
H   -1.71020003  -1.24123977  -1.51564851
H   -2.41615125  -0.68999688  -0.29513248
O   -1.06640419   2.21638423   1.11617748
H   -1.16622658   3.13158787   1.37822642
H   -0.17583649   1.98659314   1.38135118
O    2.51794515   0.15422839  -0.27841263
H    2.34413252  -0.77728095  -0.14309315
H    2.11811739   0.35242383  -1.12522322
O    0.25751834  -1.16073589   2.28801099
H   -0.65588607  -0.98047435   2.06568239
H    0.67948196  -0.30157089   2.28426305
O   -2.22502806  -0.25954272   1.47650969
H   -1.93281183   0.64675099   1.37917910
H   -3.06607414  -0.19326836   1.92870549
O    1.55922716  -2.38682508   0.27104054
H    1.07014560  -2.04400040   1.01903942
H    1.87708263  -3.24109994   0.56329766
O    1.04868417   0.54808947  -2.58098427
H    0.27315076   1.01676469  -2.27256359
H    1.16937273   0.85008966  -3.48124090
