30
Energy:   -380.61740691
O   -0.03218236  -0.84895381  -1.91332658
H    0.35421001  -1.40260711  -1.23479817
H   -0.92155097  -1.18621504  -2.02061214
O    1.06797365   1.72930268   2.11899246
H    1.60185302   2.08102385   2.83138062
H    1.62545281   1.07136167   1.70358607
O   -1.56205218   1.19591439  -0.80898720
H   -0.99352148   0.54015092  -1.21269372
H   -1.00355437   1.96627482  -0.70479102
O   -2.65007088  -1.44138018  -1.38442621
H   -2.44210503  -1.76730458  -0.50878054
H   -2.85504840  -0.51559750  -1.25349684
O    0.50154480   2.91181934  -0.33802065
H    0.70119064   2.65632605   0.56258834
H    1.10472994   2.39601194  -0.87313023
O    2.48763757  -0.08287635   0.72528225
H    2.00481257  -0.90439507   0.63462434
H    2.48258284   0.29668731  -0.15343143
O   -1.68651328  -2.12691823   1.15622381
H   -2.25488812  -2.55088868   1.79920978
H   -1.59950113  -1.22663146   1.46950398
O   -1.37466912   0.45241345   1.79909341
H   -0.57391062   0.89843253   2.07492789
H   -1.55809467   0.80517303   0.92837670
O    0.88703820  -2.30082424   0.22531282
H    0.02062569  -2.31441185   0.63197802
H    1.16500181  -3.21677041   0.22204200
O    1.97895858   1.02548135  -1.77407381
H    1.29262659   0.39713944  -1.99849907
H    2.44020228   1.18159798  -2.59815735
