30
Energy:   -381.10837396
O   -0.16878238  -0.96339815   2.83261303
H    0.48849861  -1.49834432   2.38758928
H   -0.98766147  -1.16253478   2.37872595
O   -0.49052480  -2.58161224  -0.50219318
H    0.29540031  -2.55161144   0.04338315
H   -1.18988108  -2.25954955   0.06649677
O    1.67968778  -2.16028315   1.14612498
H    2.00000489  -1.34648482   0.75707348
H    2.46510967  -2.69385759   1.26713169
O   -1.71935281   1.14245827  -0.15726767
H   -0.97415974   1.24358023   0.43492612
H   -1.39156799   0.58415387  -0.86231034
O    1.51762787   1.18279372  -2.32095264
H    0.89650522   1.89121595  -2.15190693
H    2.00308358   1.46880776  -3.09474884
O    2.35058634   0.25718251   0.14634069
H    2.18563509   0.55725479  -0.74751588
H    1.74543421   0.76606383   0.68584283
O   -2.32346116  -1.21414471   1.09847874
H   -2.26202929  -0.35995629   0.67090407
H   -3.26226205  -1.39733940   1.13487164
O    0.33521025   1.37876939   1.64006515
H    0.41393433   2.08375956   2.28273398
H    0.17211270   0.59406952   2.16339788
O   -0.46082210   2.98886594  -1.75526286
H   -1.01654746   2.46118488  -1.18171786
H   -1.07560282   3.50618163  -2.27551375
O   -0.74941727  -0.40698331  -2.11024280
H    0.12070581  -0.05281908  -2.29377854
H   -0.58149286  -1.25191192  -1.69295527
