30
Energy:   -387.20259931
O    2.08705044   0.21480921   1.54447203
H    2.27015183  -0.40110986   0.83500080
H    1.89807143   1.04197257   1.10139240
O    2.39996539  -1.29434638  -0.74966916
H    2.15597538  -0.53185617  -1.27436850
H    3.24451938  -1.57037576  -1.10571435
O   -0.08209999  -2.41362810  -1.20302852
H   -0.54055409  -2.39950174  -0.36287845
H    0.81913468  -2.17263415  -0.98871608
O   -2.59403180   0.16744395  -0.22063459
H   -2.12480805   0.13932564  -1.05446328
H   -2.20552270   0.90576682   0.24859016
O   -1.29134413   2.02681360   1.35852906
H   -0.98213974   1.29888150   1.89773159
H   -1.86187651   2.53023471   1.93929737
O   -1.01603285  -0.22603585  -2.44711079
H   -0.70641907  -1.05125349  -2.07376509
H   -1.36042179  -0.46606790  -3.30735071
O    1.48363696   0.87019015  -2.05704777
H    1.36803657   1.51525151  -1.35936285
H    0.59374841   0.60128101  -2.28512253
O    1.14827855   2.45333034   0.18601691
H    0.26805795   2.39033216   0.55679282
H    1.41314894   3.35858585   0.34907513
O   -0.36726825  -0.10338032   2.68476193
H    0.55269105  -0.08479335   2.42101725
H   -0.73105212  -0.86492882   2.23316807
O   -1.59379877  -1.97674976   1.06451038
H   -2.30158945  -2.54999312   1.35888473
H   -2.03871645  -1.25381895   0.62218567
