30
Energy:   -382.26624258
O    1.56664819  -1.06340016   0.02144419
H    1.30217501  -0.81857537  -0.86531768
H    1.00054230  -1.80204706   0.24540117
O    3.15642240   1.17858653   0.45578174
H    4.10551711   1.07904850   0.38132862
H    2.81067642   0.29777991   0.31131281
O   -2.90043533   0.43634595   0.09316891
H   -3.81786499   0.62774118   0.28790600
H   -2.57911725  -0.01679915   0.87268547
O   -1.73044374  -0.87746994   2.13914418
H   -1.36113402  -1.65314064   1.71703385
H   -0.97176401  -0.32963907   2.34043563
O   -0.81191299   2.25488922   0.25825543
H   -0.35839578   1.77393777   0.95052683
H   -1.61287184   1.75420454   0.10329863
O    1.35180704   2.22480104  -1.40070350
H    2.03806746   2.04787668  -0.75729364
H    0.57153063   2.40430759  -0.87612941
O    0.60525559   0.63985418   1.96296542
H    0.90585225   0.02567687   1.29314475
H    1.37869145   1.16314498   2.17319281
O    0.67079284  -0.15774257  -2.41761445
H    0.95544806  -0.19658757  -3.33068308
H    0.86366470   0.73902664  -2.14405042
O   -0.54422181  -2.78794506   0.50728644
H   -0.74837475  -3.72034324   0.43526527
H   -0.97435746  -2.38897276  -0.24904436
O   -1.63631157  -1.41017191  -1.52451805
H   -2.16491494  -0.73676871  -1.09633764
H   -0.92222418  -0.92665529  -1.93987660
