30
Energy:   -382.29352200
O    0.36933525  -1.55901482  -1.25856240
H    1.05094287  -1.83388276  -0.64530020
H   -0.39441879  -1.38784508  -0.70755193
O    0.38772052   1.11576052   2.34930676
H   -0.33880687   1.46446989   1.83278806
H    1.14532968   1.17306355   1.76708980
O   -1.76177428   1.73637277   0.71907289
H   -2.49227684   2.33210958   0.88549259
H   -1.56863775   1.84764462  -0.21181309
O   -2.26150211  -0.75717443  -2.36548173
H   -2.42665459  -0.95996121  -1.44470270
H   -1.52982064  -1.32439943  -2.60864809
O   -1.22007897   1.74528887  -1.90802570
H   -1.66256586   0.95109096  -2.20750339
H   -0.28760623   1.54975739  -2.00018787
O    2.48082238   0.95454491   0.54883655
H    3.27942494   1.48212917   0.53785313
H    2.14433057   1.00986107  -0.34556003
O   -0.03696536  -1.53242944   2.51506047
H    0.11291867  -0.58855109   2.56854217
H   -0.11503575  -1.81503612   3.42625218
O   -1.75891615  -1.00087037   0.40180243
H   -1.84860597  -0.06352488   0.57376468
H   -1.31245674  -1.34513529   1.17535754
O    2.13097890  -1.80666026   0.79561671
H    2.40068756  -0.88824623   0.79343643
H    1.45210330  -1.85582085   1.46862713
O    1.38502084   0.82169530  -1.96279122
H    1.79399226   0.74023195  -2.82438158
H    1.03833868  -0.05121312  -1.77819920
