30
Energy:   -381.98910643
O    1.71450668  -1.70559409   1.80116370
H    0.91519404  -1.33889688   2.17913764
H    2.05950142  -2.28247389   2.48264751
O    0.24466424   1.99136359   1.80456183
H    0.43188953   2.77244788   2.32522090
H    1.10638812   1.65084245   1.56433450
O   -2.36767317   0.53180972  -1.71119606
H   -3.00021571   0.94407676  -2.29954772
H   -1.73161971   0.11792003  -2.29460259
O   -0.41356702  -0.67639340  -3.13378187
H    0.34965038  -0.10204605  -3.07168380
H   -0.20184180  -1.41887599  -2.56798696
O    2.54067985   0.83087269   1.02353089
H    2.44054940   0.78689770   0.07259875
H    2.44534225  -0.07521508   1.31703990
O   -2.14577845  -1.21747813   0.38098105
H   -2.91624031  -1.78517274   0.39950714
H   -2.34003271  -0.57135195  -0.29800208
O    1.60599780   0.51973408  -1.54265076
H    1.19380773  -0.28004598  -1.21602705
H    0.96589659   1.20909147  -1.36576470
O   -0.58231793  -0.52166596   2.56944700
H   -1.23452110  -0.74235349   1.90449595
H   -0.38746622   0.40299492   2.41691206
O   -0.36084754   2.24874012  -0.87445522
H   -0.28804476   2.23331847   0.07984755
H   -1.15443298   1.74773285  -1.06272554
O    0.36478143  -1.78140019  -0.61618627
H    0.92853528  -1.93789568   0.14139052
H   -0.51066567  -1.67111039  -0.24516015
