30
Energy:   -381.50159589
O   -0.34203461  -1.28651724  -2.20664535
H   -0.14867448  -0.36152020  -2.05425051
H   -1.08546896  -1.47387096  -1.63355216
O    0.65275334  -0.52638424   2.20927664
H   -0.09572269  -0.03850344   1.86578308
H    1.37709791  -0.29543826   1.62770916
O    0.10352126   3.83605210  -0.70032767
H   -0.18933548   4.58264882  -1.22287920
H   -0.54087064   3.76876024   0.00427344
O   -2.14200298  -1.80886129  -0.14746770
H   -2.90269959  -2.38529109  -0.07465823
H   -1.44428578  -2.27262336   0.31550887
O   -1.76420359   3.36137631   1.23237892
H   -1.77515007   2.40887832   1.13825346
H   -1.80976603   3.50973329   2.17691379
O    0.41284385   1.17439682  -1.17518529
H    1.22818860   0.91891312  -0.74370774
H    0.39886026   2.12963467  -1.11554512
O   -0.00014162  -2.90399936   1.05092163
H    0.67978455  -2.91461592   0.37726033
H    0.24095724  -2.17603692   1.62378625
O   -1.37927133   0.67850648   0.79790923
H   -1.82978962  -0.12176136   0.52802684
H   -0.78409682   0.87451860   0.07432205
O    1.77913111  -2.45071130  -1.04513891
H    1.04735447  -2.08159133  -1.53959340
H    2.13428386  -3.13266421  -1.61526048
O    2.48628699  -0.08240733   0.16321150
H    2.36242362  -0.93352502  -0.25689371
H    3.43548129   0.00757235   0.24786187
