28
Energy:   -896.37689810
O    0.98989143  -3.18148156   1.14019581
H    1.52888953  -2.58490699   1.65962981
H    0.31513537  -2.62201637   0.75557289
O   -2.81049413  -0.97560621  -1.16409782
H   -2.05894651  -1.21278532  -0.62081696
H   -2.86645764  -0.02265628  -1.09348369
O    2.38199727  -1.57583880  -0.66523731
H    1.75403807  -0.86056923  -0.56380490
H    1.92932211  -2.34384454  -0.31669144
O    2.44564646  -0.95747099   1.99149217
H    1.59108947  -0.53639479   1.89843824
H    2.73120671  -1.12207821   1.09283114
O   -2.04821609   1.73044721  -1.07882954
H   -1.50990802   1.29551459  -1.74010852
H   -1.77707430   1.33477017  -0.25048562
O   -0.17141032   2.59390372   2.19221581
H   -0.48806672   1.71390456   1.98834810
H    0.18487768   2.91834259   1.36515467
O    0.43013815   2.87837262  -0.47613750
H    0.66233238   1.96881221  -0.28900775
H   -0.49723662   2.84587168  -0.71098125
O   -0.53424531  -0.04174976  -2.45160759
H   -0.05444915   0.02251923  -1.62583705
H   -1.28083808  -0.60655448  -2.25204123
C   -0.17470913  -0.34401759   0.70668518
O   -1.23990214   0.45428474   1.03077716
O    0.66510117   0.33533848  -0.13610350
O   -0.62705892  -1.47826519   0.08487954
