28
Energy:   -896.43054987
O    2.62940864  -0.74515765  -1.01479158
H    2.82017102  -0.69996003  -0.07788244
H    1.67731125  -0.66338293  -1.07006634
O   -1.94661608   2.50676103  -0.41123932
H   -1.15419986   2.24633255   0.05831941
H   -2.42860730   1.68987360  -0.54012384
O   -3.07905512   0.14292571  -1.36126027
H   -2.43565971   0.37584324  -2.03060593
H   -2.56353676  -0.26061569  -0.66295733
O   -0.91547622   1.23236020  -2.64115681
H   -0.50627055   0.56946189  -2.08496583
H   -1.20625958   1.91075671  -2.03168568
O   -0.34194430   0.08233021   2.98132439
H   -0.78795246  -0.28531565   2.21834006
H    0.57621312  -0.16098051   2.86292384
O    0.35866974   1.67823633   0.85897897
H    0.24943133   0.94836764   0.24939672
H   -0.01529327   1.36204560   1.68141859
O    1.69957355  -3.32162142  -0.64489945
H    1.00151836  -2.90492174  -0.13961520
H    2.20324900  -2.59188586  -1.00549464
O    2.13913875  -0.27111159   1.70198626
H    1.82456011   0.57133452   1.37402790
H    1.49814568  -0.90692425   1.38402086
C   -0.59726848  -1.14523141  -0.01778934
O   -1.56056546  -0.47032662   0.68472105
O    0.26633928  -1.74996400   0.85718433
O    0.09410628  -0.26353040  -0.80670282
