28
Energy:   -898.72359879
O    2.53600260   1.14660474  -1.41844471
H    2.72840711   1.67853973  -0.64626758
H    1.60183256   0.95019520  -1.34786520
O    2.51744248   0.23193383   1.82496209
H    1.85114885   0.81001144   1.45332932
H    2.68533384  -0.41340709   1.13824567
O    2.75382039  -1.37133638  -0.37041620
H    1.84217512  -1.60288806  -0.19288152
H    2.70471462  -0.52142331  -0.80798705
O   -0.03047678  -0.49041041   2.59784854
H   -0.47215356   0.05241081   1.94477994
H    0.89786426  -0.28040018   2.49630804
O   -2.11136780  -0.01851689  -2.32728150
H   -2.49915221  -0.56795740  -1.64612790
H   -1.30606670   0.31822537  -1.93443722
O   -2.58514239  -1.34248530   0.03218715
H   -2.30106972  -0.46241210   0.27918052
H   -1.77437979  -1.84727829  -0.03168689
O    0.13815440  -1.81360062   0.22402234
H    0.03743938  -1.57503064   1.14552801
H    0.04981092  -0.98621639  -0.24911888
O   -3.18922706   1.97609622  -0.72806890
H   -2.99352409   1.43687462  -1.49434057
H   -2.46330616   1.81067567  -0.12648205
C   -0.30505292   1.34626238  -0.08373628
O    0.76135658   1.72091061   0.69045226
O   -1.27644129   0.79802448   0.71183811
O    0.10472027   0.42137802  -1.00810366
