28
Energy:   -899.72880587
O    0.55704524   2.57554088  -1.64217234
H    0.50248225   2.15987282  -0.78166389
H    0.19418100   1.92696885  -2.24542661
O   -0.94687949   1.76443449   2.82988687
H   -0.42939200   1.65090719   2.03267292
H   -1.36961327   0.91624250   2.96441695
O   -2.21208224   0.11560958  -0.39238842
H   -1.42289135   0.56859448  -0.09537955
H   -1.93904432  -0.79523487  -0.50213602
O    2.59755142  -2.39314238   0.85375610
H    2.00322049  -1.72789838   1.20081952
H    2.53017037  -2.30274816  -0.09678086
O   -1.77824625  -0.82295404   2.16942784
H   -2.17108956  -0.38250209   1.41583109
H   -0.83521509  -0.71535105   2.04555021
O    2.73158238   0.88078111  -1.82157217
H    2.19545790   1.67330205  -1.84827349
H    2.25363236   0.28711380  -1.24247394
O   -1.01299123  -2.30735504  -0.09284388
H   -1.26213150  -2.11512524   0.81115207
H   -0.26823113  -1.73100331  -0.26425837
O   -0.56428657   0.26044847  -2.60949107
H    0.10406240  -0.02894655  -1.98836948
H   -1.34829293   0.38930839  -2.07567367
C    0.93797555   0.18074709   0.51598516
O    0.73772205  -0.60194689   1.62244215
O   -0.03259154   1.14600820   0.45793954
O    0.87698024  -0.59725759  -0.61041108
