28
Energy:   -896.38487192
O   -3.11586591   0.36424354   0.12845918
H   -2.80946628   0.59613685   1.00514419
H   -2.34379998   0.46105454  -0.42901162
O   -1.98023997  -2.13305882  -0.55342593
H   -1.13979608  -1.70076843  -0.70511950
H   -2.56148247  -1.43144100  -0.25996137
O   -1.51861109   1.26289544   2.26416586
H   -1.01052111   1.33979967   1.45660028
H   -1.06544071   0.58795680   2.76946408
O    2.94676548   1.04088190  -0.53585660
H    2.13318147   0.96869914  -0.03675485
H    2.79982831   0.50245671  -1.31350667
O    1.74450801  -0.04621847  -2.77075852
H    1.27507488  -0.43042770  -2.03032105
H    1.48121804   0.87405872  -2.77039901
O    0.19895933  -2.76891715   1.11691600
H    0.54595107  -2.05157520   0.58658676
H   -0.71196700  -2.85610478   0.83612534
O    0.55408855  -0.57419780   2.74819853
H    0.63530912   0.00793214   1.99271206
H    0.40804840  -1.44078758   2.36882236
O    1.09511764   2.50230517  -1.94379350
H    0.37830981   1.96894594  -1.60036036
H    1.84993669   2.26558039  -1.40486733
C   -0.17007364   0.11884725  -0.12340528
O   -0.76518189   0.81679629  -1.14108484
O    0.63767791   0.96003019   0.59565485
O    0.58183688  -0.89986500  -0.64746267
