28
Energy:   -897.02246396
O    1.57662582   0.54725026   2.81991679
H    1.11478334  -0.05225311   2.23380325
H    2.06344246   1.12755209   2.23468931
O    2.28913061   1.60178201   0.36485342
H    1.59820644   2.25073919   0.23177366
H    1.84077287   0.75819718   0.30508869
O   -1.50579905  -2.35293753  -1.65321194
H   -0.81705231  -1.92317673  -2.16032675
H   -1.50947188  -1.89180219  -0.81441962
O    0.87593839  -3.03244170  -0.41228736
H    0.89879352  -2.18948989   0.04063840
H   -0.00514974  -3.08184467  -0.78306345
O   -0.09301091   2.96729931   0.20159505
H   -0.32479300   2.80647837   1.11627835
H   -0.20779723   2.11949906  -0.22769584
O    0.78584857  -1.06347180  -2.37550533
H    1.12551376  -1.74045368  -1.79022339
H    0.39453396  -0.41472231  -1.79050207
O   -0.85197238   1.81892399   2.62707709
H    0.00854150   1.47524038   2.86713807
H   -1.14724690   1.25093339   1.91543709
O   -2.70113541   0.13117362  -1.98596089
H   -2.60846604  -0.82108111  -2.01520404
H   -1.96786959   0.42720171  -1.44659047
C   -0.32986014  -0.06994733   0.45691337
O   -1.30479397  -1.02734275   0.55619290
O   -0.43797538   0.56812312  -0.75067761
O    0.90233789  -0.66182362   0.55257250
