28
Energy:   -900.55130668
O   -0.95684928  -0.05548183  -2.19701250
H   -0.38452738   0.19182814  -1.47070866
H   -1.72471007  -0.44246218  -1.77645587
O   -2.48234291  -1.72397876  -0.57954686
H   -1.73970636  -2.26183119  -0.85420583
H   -2.09949200  -1.06261051  -0.00313636
O    2.47299244  -1.04349869  -1.40773561
H    1.88802206  -1.78072048  -1.58250846
H    1.93344114  -0.41861371  -0.92334423
O    2.77643454  -1.76638892   1.22886940
H    1.85472543  -1.54427215   1.36058238
H    2.95352582  -1.52638255   0.31932695
O   -1.54576367   2.70298503   0.05316445
H   -1.56886923   1.75369955   0.17380874
H   -0.61452034   2.92398858   0.06639844
O   -0.99554910   2.08141197   2.67943377
H   -0.82298831   1.21222348   2.31754154
H   -1.41904645   2.55869323   1.96593223
O    1.08861873   2.70590860   0.90934209
H    0.56194793   2.60748568   1.70253982
H    1.02507338   1.85674530   0.47217446
O    0.06880463  -2.46120481  -1.48428777
H   -0.18936707  -1.67658510  -1.96797273
H    0.16176662  -2.16517792  -0.57877245
C   -0.01617567  -0.11450299   0.85670820
O    0.13798289  -1.47455795   0.91539400
O   -1.34410964   0.18839988   0.70858655
O    0.68713823   0.37880322  -0.21089600
