28
Energy:   -898.46127605
O    2.12284684   1.49084001   2.64811893
H    1.74089200   0.74300067   2.18868594
H    1.65685497   2.25054184   2.29892478
O   -2.64047348   0.80349726  -1.41043313
H   -2.18800655   0.31566264  -0.72230312
H   -1.93906124   1.22752977  -1.90485112
O    0.43182029  -1.45819299  -1.66577891
H    1.29074898  -1.06888327  -1.50173226
H   -0.11732530  -1.13829190  -0.95000363
O    0.04723273   1.26180884  -2.08701317
H   -0.00655863   1.39757984  -1.14101921
H    0.02256441   0.31101531  -2.19478606
O    2.41567709   0.30018873  -0.99657941
H    1.98162479   0.11333522  -0.16416352
H    1.80298872   0.86737989  -1.46470225
O   -2.39240048   2.56963262   0.68074824
H   -2.73564821   2.04022261  -0.03906970
H   -1.54218742   2.17865399   0.88200754
O    1.21952664  -2.89026725   0.62407941
H    0.89473694  -2.80957939  -0.27271096
H    1.17611559  -2.00114818   0.97595242
O   -1.36288396  -2.59638101   1.51645091
H   -0.47817886  -2.93372483   1.37599488
H   -1.32746997  -1.69237552   1.20379812
C   -0.13825205   0.30631254   1.01514899
O    0.08854904   1.56271668   0.51818995
O    1.04994246  -0.36960305   1.10696792
O   -0.98535069  -0.36995670   0.17677914
