28
Energy:   -899.72059084
O   -0.71078246  -3.33708543  -0.61013308
H   -0.16601296  -2.63538637  -0.25365522
H   -1.52527182  -2.90310222  -0.86409669
O   -2.40891452  -1.18342172  -1.15826582
H   -1.70688152  -0.92900976  -1.75714484
H   -2.01945854  -1.11000746  -0.28696436
O    3.06888279  -0.43297736  -0.18213878
H    2.88093371   0.42742006  -0.55713648
H    2.20759975  -0.80801141   0.00163510
O    2.46871150   0.93448168   2.14213003
H    1.54880739   0.86502618   1.88681806
H    2.93729889   0.40380595   1.49789329
O   -0.21267027   0.09889886  -2.23742506
H   -0.74833982   0.79562277  -1.85812863
H    0.12884566  -0.37951152  -1.48196347
O   -1.66272509   1.07538204   3.04761545
H   -1.01475853   1.72581848   2.77686903
H   -1.53679053   0.34474359   2.44219014
O    1.69410371   1.75727659  -1.11258224
H    1.25491375   1.51774117  -0.29651435
H    1.26016096   1.22911932  -1.78263854
O   -1.89296006   1.53377567  -0.65120765
H   -1.17682190   1.32352776  -0.05189655
H   -2.38085694   0.71492189  -0.73876899
C    0.03946701  -0.45480218   0.98500005
O   -1.28287825  -0.78121162   1.13271015
O    0.15921072   0.89952487   0.81600750
O    0.54877298  -1.09921381  -0.11186881
