28
Energy:   -897.21198838
O   -2.94932094   0.39777745   0.24502713
H   -2.50871304   1.07589647  -0.26707746
H   -2.31013899  -0.31235991   0.30319244
O    2.00345996   0.31625227  -2.25048578
H    2.16770053   1.04060448  -1.64668882
H    1.20425934  -0.09455429  -1.92071590
O   -1.82327110  -2.19492536  -2.08603087
H   -2.03374327  -2.64317591  -1.26688207
H   -1.23403943  -1.48633296  -1.82731347
O    1.75850195   2.07791064  -0.16420444
H    0.91465173   2.37474907  -0.50484440
H    1.57480345   1.21935655   0.21707182
O    3.07797508  -1.08767280  -0.12109534
H    2.94454278  -0.75274013  -1.00780148
H    2.23042337  -0.97317069   0.30876187
O    0.27432429  -2.11138592   2.84430065
H   -0.21404298  -1.92811027   2.04171776
H    1.01401180  -1.50438005   2.81903968
O   -0.95928630   2.13818539  -0.60783472
H   -0.91966715   2.11056107   0.34814596
H   -0.69127725   1.26192721  -0.88455587
O   -1.03038484   1.31990167   1.99291526
H   -1.85249628   0.97565446   1.64383290
H   -0.35589299   0.74812802   1.62635354
C    0.05938034  -0.95615124  -0.01737794
O   -1.06833466  -1.39121932   0.62755075
O    0.77152205  -0.13226506   0.81398512
O   -0.29791356  -0.26769265  -1.14704429
