28
Energy:   -900.02933165
O    0.83163207   0.01179423   1.97483710
H    0.39971409   0.53241484   1.29761270
H    0.95084577  -0.84993942   1.57554390
O    1.34980259  -2.00447116   0.16849511
H    0.54722178  -1.58116219  -0.13630879
H    2.03929818  -1.36287204  -0.00232130
O    2.74473525   0.39852728   0.02384123
H    2.26647819   0.45039617   0.85137471
H    2.06543402   0.44252931  -0.64909674
O    1.06205247  -2.11650737  -2.62344682
H    1.18964011  -2.47528099  -1.74524711
H    0.72370768  -1.23347113  -2.47511727
O   -1.75993423  -0.96250144   1.81972396
H   -0.99445333  -0.55389138   2.22383862
H   -1.57916429  -0.93412934   0.88017668
O   -2.70622799   1.46504098   0.93829785
H   -1.88292255   1.53210812   0.45466369
H   -2.64862322   0.62576818   1.39495386
O    1.72886089   3.00110135  -0.23148261
H    2.40550410   2.32406978  -0.22773393
H    0.90457745   2.51635372  -0.27400770
O   -3.32153980  -0.24598925  -1.14993693
H   -3.36328587   0.47063986  -0.51674514
H   -2.39030409  -0.45907072  -1.21017135
C   -0.38862480   0.47785216  -1.01781901
O    0.80331712   0.39323213  -1.68794757
O   -0.24882810   1.31402802   0.05845493
O   -0.75749198  -0.76842916  -0.58365305
