28
Energy:   -897.36925126
O   -0.48758245   3.46842949   0.27719447
H   -0.01164455   2.70133749  -0.04105831
H   -0.99866411   3.14330069   1.01835480
O   -1.64576988   1.87239800   2.21897232
H   -2.27410569   1.46442814   1.62316484
H   -0.80705506   1.46810467   1.99685477
O   -0.02506876  -1.69645332  -1.39336057
H    0.62300162  -1.16407238  -1.85467084
H   -0.16239195  -1.24102533  -0.56272254
O    0.73583463  -2.43436720   2.21253049
H    1.45964802  -2.59539587   1.60722413
H    0.33934062  -1.62058712   1.90142548
O    2.15167764  -0.15019033  -2.00248851
H    2.52409256  -0.80470578  -1.41160062
H    1.61250628   0.40368709  -1.43791266
O   -2.71565920   0.21482459   0.29588565
H   -1.85682272  -0.05032206   0.62501934
H   -2.54887835   0.51041878  -0.59912277
O    2.33094936  -2.16403098  -0.05294284
H    2.22222161  -1.31955414   0.38440025
H    1.49777810  -2.31154702  -0.50048784
O   -1.49012472   0.56900413  -2.12834943
H   -0.84171099   0.96115438  -1.54353351
H   -1.32508266  -0.37223349  -2.07298968
C    0.58092391   0.61190535   0.72864809
O    1.86465315   0.16975025   0.91166851
O   -0.28742800  -0.43931271   0.86282839
O    0.45788783   1.14928136  -0.52589141
