28
Energy:   -900.51406551
O   -0.72957066  -2.41449697   2.44603411
H   -0.20646607  -1.64524599   2.22054271
H   -1.07493639  -2.72374669   1.60858621
O   -1.15771638  -2.79111020  -0.24493817
H   -1.16801912  -1.84084483  -0.13038934
H   -0.23762068  -3.00408273  -0.40081779
O    2.94888510   0.11578982  -0.87021546
H    2.25044839   0.56213888  -0.39147699
H    2.76406416  -0.81581494  -0.75111198
O    1.55363767  -2.31280254  -0.70887956
H    1.33525435  -1.80581143   0.07310547
H    1.17436821  -1.81361175  -1.43220181
O   -0.73113718   2.81016543  -1.12597538
H   -1.55739654   2.39578316  -0.87734987
H   -0.05617333   2.22576469  -0.78082120
O   -2.59365117   1.54135928   0.48474980
H   -2.09776698   2.11447097   1.06944949
H   -1.99064053   0.82637080   0.28127623
O   -0.55043494   3.10102874   1.60708895
H   -0.10026159   2.25814552   1.55119905
H   -0.61252014   3.40054747   0.70007969
O    0.60443497  -0.33071320  -2.29555794
H    0.06171666  -0.22232500  -1.51457095
H    1.45093407   0.04494650  -2.05358499
C    0.13876147   0.27424712   0.80764584
O    0.96403210  -0.72309006   1.25620500
O   -0.77137107  -0.24801835  -0.07326069
O    0.88518373   1.23539448   0.17770158
