28
Energy:   -895.54285381
O    1.59138271  -1.10441379  -0.11565773
H    1.81925774  -0.38185717  -0.70065068
H    0.75917415  -0.84157051   0.27750148
O    2.17380519   0.98703378   1.60289776
H    1.29240608   1.32603323   1.44654295
H    2.16421755   0.10886873   1.22215367
O   -1.82732216  -2.55919485   0.34401964
H   -1.50211628  -1.72417430   0.68049202
H   -1.21190065  -2.79414050  -0.35045048
O   -2.33556958  -0.86067573  -1.75354116
H   -2.46473768  -1.42819729  -0.99362885
H   -1.74876169  -0.17177635  -1.44160207
O    0.31748613  -0.05332701   3.41610330
H    1.12420093   0.37757676   3.13367627
H   -0.21370037  -0.11244026   2.62201365
O    1.97830710   1.39012745  -1.14033106
H    2.22679618   1.50204743  -0.22274785
H    1.03101132   1.25467673  -1.11762298
O   -1.17564136   3.34086824  -1.24140756
H   -0.99985992   3.62515265  -0.34445990
H   -1.02823045   2.39520183  -1.22667943
O   -0.09259887  -2.43874294  -1.81651732
H    0.53065530  -1.99736198  -1.23948270
H   -0.79174963  -1.79856315  -1.94914420
C   -0.88950260   0.81181418   0.38711569
O   -0.20491081   1.81358137   1.02331925
O   -0.59768085  -0.38838322   0.97996056
O   -0.51931476   0.77231411  -0.93166439
