28
Energy:   -899.43096774
O    3.40473106   1.22476395  -1.12090779
H    3.46195133   0.39766451  -0.64251024
H    2.46611025   1.36623202  -1.24423504
O    0.86436973  -1.72478108  -1.91191220
H    0.35505460  -1.98765636  -1.14527896
H    0.91679812  -0.77104542  -1.84969165
O   -0.15215877   0.81046201   2.86580511
H   -0.98244960   0.34399398   2.76959410
H    0.26130118   0.74451928   2.00502972
O   -1.81022148   2.47289202   1.43259304
H   -1.52699229   2.08542063   0.60441492
H   -1.15938755   2.17906201   2.07001830
O    2.78543957  -1.18849052   0.05374635
H    2.44539671  -1.57191501  -0.75470177
H    2.10477534  -0.57661528   0.33399044
O   -0.96957657  -1.68819533   0.14869067
H   -0.39597945  -0.93359010   0.28206658
H   -1.50115039  -1.45407471  -0.61213037
O   -1.71435102  -0.73260094  -2.33435250
H   -0.85841428  -1.12094305  -2.51544515
H   -1.52354978   0.01577883  -1.76888414
O   -2.52509478  -0.19644079   1.88321497
H   -2.41953765   0.69561250   1.55256339
H   -2.00164247  -0.73564716   1.29035241
C    0.23184656   1.13840780  -0.45486550
O    0.80819586   0.86144049  -1.66650446
O    0.69662723   0.25561478   0.48415218
O   -1.12935679   1.02015094  -0.55936892
