28
Energy:   -899.48768666
O    0.09965256  -2.45951270  -1.14829071
H    0.36034464  -2.15627779  -0.27862406
H   -0.29485959  -1.69170669  -1.56189189
O   -2.24812794  -1.94813118   0.27961979
H   -1.54328675  -2.43272242  -0.15003364
H   -1.80008874  -1.26648852   0.78047507
O    2.43339315  -0.95844752  -1.52630769
H    1.96195612  -0.36439648  -0.94228514
H    1.87148178  -1.73094119  -1.58747129
O    3.30156545  -1.55047887   1.01982565
H    2.40712055  -1.39563423   1.32350856
H    3.27708237  -1.34329001   0.08563872
O   -2.09680355   2.32237346  -0.41449304
H   -1.82219098   1.49525324  -0.81033636
H   -1.87380588   2.23080904   0.51185454
O   -0.94285204   2.45001521   2.13303146
H   -0.91259358   1.50447208   1.98720806
H   -0.25642976   2.80229820   1.56650433
O    0.57844066   2.92294174  -0.10937244
H    0.79395598   2.00208738   0.03831727
H   -0.33328056   2.91229612  -0.40071921
O   -1.25235715  -0.07993166  -1.49562636
H   -0.51946861   0.10699473  -0.90897079
H   -1.86047497  -0.59342089  -0.96388077
C    0.37035545  -0.17258363   1.17942505
O    0.63079613  -1.51716963   1.21431802
O   -0.97925719   0.03405651   1.29319834
O    0.81399091   0.34746862  -0.00822534
