28
Energy:   -899.99922865
O   -0.45708699  -2.83875535  -1.50881201
H   -0.08719134  -2.51934614  -0.68577689
H   -0.66466015  -2.04540846  -2.00251835
O   -2.57312932  -1.69711161  -0.07822531
H   -1.98360705  -2.35085918  -0.45413682
H   -1.99660663  -1.09997528   0.39851533
O    2.90848273   0.82558047   0.74356974
H    2.23699415   0.34354192   0.26089618
H    2.41787715   1.36202760   1.36627552
O    2.75432746  -1.77438285   1.75283889
H    1.84127568  -1.83555503   1.47207874
H    3.02304583  -0.88989756   1.50442784
O   -2.18833125   1.83364988  -0.52644691
H   -2.02486039   1.33696953  -1.32820607
H   -1.78624200   1.30986987   0.16652537
O    0.67859143   2.20263834   1.90699525
H    0.28017361   1.33806234   1.80697810
H    0.69161042   2.56482466   1.02105878
O    0.41868270   2.51523963  -0.80174777
H    0.67370044   1.60088683  -0.67863503
H   -0.53294804   2.51494064  -0.69864250
O   -1.34200388  -0.29909566  -2.06774454
H   -0.56456966  -0.16592946  -1.52543961
H   -1.98449177  -0.68855422  -1.47464826
C    0.26065255  -0.44031371   0.73178874
O    0.17898924  -1.80631378   0.79761652
O   -0.97842413   0.10208542   0.94994223
O    0.71025109  -0.06930175  -0.50836911
