28
Energy:   -896.45695762
O   -1.15363608  -2.54507752  -1.08457178
H   -0.84583999  -2.22014248  -0.23845676
H   -1.61343445  -1.80151422  -1.47435495
O    2.43226293  -2.48062039   0.02335872
H    2.27050360  -1.96084676  -0.76397929
H    1.68362281  -2.29628263   0.59062358
O    0.94614781  -0.88461035  -1.70787597
H    0.85820934  -0.38038447  -0.89901570
H    0.36674108  -1.63672099  -1.58601839
O    3.06350985  -0.07296388   1.14648616
H    3.06196611  -0.98171775   0.84582712
H    2.15452226   0.21217057   1.05336395
O   -0.53922293   2.38474877  -0.91481745
H   -1.08281437   1.78056804  -1.42049110
H   -0.08319800   1.82710938  -0.28449101
O   -2.38928245   2.13066322   1.10564368
H   -2.13612100   1.20761895   1.11706365
H   -1.83500595   2.52320635   0.43116661
O   -0.01355145   2.32125801   2.46827926
H    0.30841773   1.55231390   1.99786173
H   -0.93284709   2.39233294   2.21122727
O   -1.61679237   0.07323401  -1.93088981
H   -0.69407155  -0.08484161  -2.13046495
H   -1.67169416   0.00274515  -0.97786884
C   -0.28326455  -0.35393181   1.15131885
O    0.16468568  -1.64454163   1.04823999
O   -1.52452448  -0.25456311   0.57991842
O    0.58648528   0.48403825   0.50392282
