28
Energy:   -899.40093547
O   -1.44890230  -2.01982973   0.31470818
H   -0.68055394  -2.20763439  -0.22436700
H   -1.54943242  -1.06915252   0.26635128
O    1.32685506   1.32093068  -3.04322802
H    2.05828420   1.17733713  -2.44270812
H    0.55397660   1.04547953  -2.55026007
O    2.82436995   0.41519851  -0.91975011
H    2.05416702   0.81197226  -0.51282275
H    2.54352512  -0.46962674  -1.15307883
O   -2.61639227  -1.18629618  -2.09957684
H   -2.57605791  -1.70597527  -1.29674520
H   -1.92748309  -0.52994605  -1.99545917
O    0.59219842  -0.98483945   1.84355095
H   -0.19262808  -1.45132683   1.55602922
H    0.61646226  -0.19778456   1.29931963
O    0.22201018   2.88459909   2.05027451
H   -0.36004550   2.33880965   2.57900595
H    0.35746260   2.38252746   1.24665236
O    1.09706343  -1.80532909  -0.77589345
H    0.57667439  -1.07478013  -1.11014681
H    1.22962893  -1.60172927   0.14996040
O   -1.29684519   0.76649769   2.94213160
H   -0.52616472   0.19897196   2.92805971
H   -1.52337270   0.88651512   2.01989901
C   -0.55472145   0.99253894  -0.47245306
O   -1.58788802   0.59339339   0.33390172
O   -0.42455834   0.11431729  -1.51594867
O    0.60754228   1.01600334   0.25306238
