28
Energy:   -897.03558442
O    2.31017732   1.81674359  -1.37803146
H    2.16529158   1.16063032  -0.69630178
H    1.43972629   1.98327094  -1.73971571
O    1.59379953  -0.50436257  -2.70970308
H    2.10155755   0.23492995  -2.37524798
H    1.06074466  -0.78542437  -1.96600380
O   -0.25912833   1.51709138  -2.24125092
H   -0.35625687   1.29470749  -1.31532258
H    0.16214010   0.75018309  -2.62934425
O   -0.75070969  -3.11822918   0.67312044
H   -0.15021841  -2.47583595   0.29500274
H   -1.62254662  -2.76448732   0.49705533
O   -2.08874932   0.29935462   2.09718226
H   -1.61210959  -0.40093135   2.54287944
H   -1.48826120   0.60275513   1.41630489
O   -2.54758865  -1.19199741  -0.16795017
H   -1.65413850  -1.04509968  -0.47843323
H   -2.62128055  -0.64890318   0.61681095
O   -0.19967725  -1.59215154   2.89132149
H    0.24265768  -0.91718117   2.37655295
H   -0.43434455  -2.26561249   2.25287536
O    1.15148611   3.03906393   0.82964246
H    1.79063570   2.88278377   0.13444741
H    0.59366305   2.26124128   0.82207857
C    0.36618072  -0.24610556   0.35785893
O    1.71349701   0.00223355   0.36284470
O    0.04685208  -1.00994107  -0.73378356
O   -0.31637327   0.94076090   0.30086549
