41
Energy:  -1096.76560197
O    0.40949040  -2.93243630  -1.93903516
H   -0.49236650  -2.61763146  -2.00054850
H    0.79977454  -2.40750256  -1.24021136
O   -2.83433403   1.69198874  -0.23808357
H   -2.38524253   0.87605488  -0.01717498
H   -2.19920639   2.37838865  -0.03387805
O    2.52207853  -1.10598021   3.48283117
H    1.92310184  -1.73897740   3.08688506
H    2.89418880  -0.63056370   2.74003582
O   -2.14269933  -1.73549663  -1.95950261
H   -1.88534486  -1.39937300  -1.10100309
H   -2.17055791  -0.96137813  -2.52181596
O    1.28848781  -0.90422217  -3.58305307
H    1.05743795  -0.24152385  -2.93214697
H    1.08071968  -1.73784681  -3.16099358
O   -0.67829811   3.38860545   0.17887786
H   -0.16347534   2.67139153   0.54873399
H   -0.44581750   3.39695739  -0.74962354
O   -2.02667922   0.99763029  -2.77919387
H   -2.49158789   1.23471889  -1.97677205
H   -1.13566281   0.79979511  -2.49077953
O    0.72880341  -2.66320963   2.17117083
H    0.95540852  -2.24872449   1.33865414
H   -0.09781678  -2.25341696   2.42612352
O   -0.09680847   3.07499501  -2.49316505
H   -0.93540943   2.77888727  -2.84714314
H    0.31406620   2.28027886  -2.15281216
O    3.30992283   0.19986569   1.22691858
H    2.63254858   0.87477878   1.27037307
H    2.92077338  -0.49705154   0.69861853
O   -1.44511465  -1.09250760   2.75681027
H   -1.48803004  -0.88908828   1.82245986
H   -0.87075926  -0.41986252   3.12272875
O    0.48213430   0.72489075   3.51599201
H    0.51700861   0.97538668   2.59280871
H    1.20547383   0.10746651   3.62461558
S    0.27242586   0.04941669  -0.12942183
O    0.35394752   0.60566151  -1.50929354
O   -1.12538540  -0.38482139   0.14925535
O    1.18873928  -1.11944939  -0.01016652
O    0.67240204   1.09627601   0.85251738
