41
Energy:  -1096.61870846
O    2.51189473  -2.04939840  -0.70083835
H    2.93552175  -1.23742436  -0.42250373
H    1.61722941  -1.79002432  -0.92113565
O   -3.28906544  -0.91463198   0.57914780
H   -2.80789032  -0.22439654   0.12277362
H   -2.76244846  -1.10055198   1.35654098
O    3.32895216   0.38882696   0.30523550
H    2.55673300   0.81330678  -0.06856431
H    3.04266687   0.08554096   1.16679814
O   -0.84607627  -2.55152158   1.80540167
H   -0.53742856  -1.65046285   1.71020929
H   -1.14666730  -2.79596677   0.93011690
O    1.82823282  -3.24656611   1.66567930
H    0.88764070  -3.08281138   1.73425555
H    2.06920522  -2.90469069   0.80470000
O    0.13633151   3.68298497  -1.48261706
H   -0.50056175   3.31207531  -2.09337467
H    0.55493814   2.92174700  -1.08072518
O    0.85003971   0.53232742  -3.33939556
H    1.15178978   1.04064958  -2.58654277
H    0.52995906  -0.28738592  -2.96276541
O    2.21373003  -0.68337808   2.57246713
H    2.19762512  -1.62062034   2.37869036
H    1.39725038  -0.34774113   2.20241217
O   -1.47982603   1.99661826  -2.99721707
H   -0.70711450   1.52002654  -3.30054705
H   -1.67792537   1.61355024  -2.14267194
O   -1.87430116   3.31269279   0.40075844
H   -1.93400326   2.40080837   0.11591758
H   -1.14896764   3.67585260  -0.10741288
O   -1.09891841   1.98907345   2.74204474
H   -0.69128894   1.22882052   2.32721279
H   -1.37597326   2.54151884   2.01110251
O   -1.86163443  -2.86724894  -0.72531491
H   -1.13128541  -2.30348634  -0.98025392
H   -2.52904022  -2.26304916  -0.40013192
S   -0.14400643   0.24566800  -0.24142723
O    0.05030164  -1.00520988  -1.02733367
O   -1.49138951   0.81109826  -0.53288466
O   -0.03765267  -0.05999361   1.21300045
O    0.90271484   1.23677722  -0.61849104
