41
Energy:  -1097.51025488
O   -2.15472701   0.95045236   2.60262179
H   -2.28580355   0.01974381   2.78381889
H   -1.33148411   0.98650945   2.11558703
O    2.04067853   3.17269020  -1.80495214
H    2.01420100   2.32742502  -1.35655772
H    1.25488070   3.17914237  -2.35149765
O   -0.18152692   2.46034167  -3.30965393
H    0.45800543   1.79774458  -3.57079628
H   -0.53320324   2.14020127  -2.47895197
O    0.45452930  -1.51704568   2.71877725
H    0.25449142  -0.71406664   2.23769374
H    0.88010594  -2.08298454   2.07470459
O    1.73968202  -2.66294851   0.59585659
H    2.43365141  -2.00372284   0.58812016
H    1.02506138  -2.26496196   0.09870882
O    1.47067685   0.27059638  -3.59658796
H    1.67888886   0.42384134  -2.67496136
H    0.67944328  -0.26775256  -3.57756959
O   -3.30885169   1.07593033   0.11677776
H   -2.51586876   1.21208997  -0.40174945
H   -3.01416239   1.13376435   1.02564810
O   -2.74076487  -1.62276231   0.12963457
H   -1.82751837  -1.58753593  -0.15492086
H   -3.05142436  -0.72075017   0.05155376
O   -0.95965959  -0.94832622  -3.19470007
H   -1.30731092  -0.08020894  -2.99038955
H   -0.67862637  -1.29927436  -2.34966304
O    3.43116177  -0.47009198   0.64819471
H    2.87681528  -0.06097741  -0.01630291
H    3.15680148  -0.06614686   1.47147269
O    2.22144448   0.63208402   2.86188428
H    1.86363775  -0.20092480   3.16897140
H    1.57550410   0.95339170   2.23279426
O   -2.27343417  -1.79419652   2.80363794
H   -1.31678276  -1.80071754   2.83537759
H   -2.48273201  -1.81669969   1.86987144
S    0.13460076   0.33697404  -0.34167981
O   -0.88081946   1.16104868  -1.05576858
O    1.49152597   0.65354133  -0.86954258
O    0.08529012   0.64137802   1.11606046
O   -0.15759359  -1.10807188  -0.55746852
