41
Energy:  -1100.52287494
O    0.68185429  -3.21984905   1.78750761
H    0.32574722  -2.77619611   1.01770786
H    0.35312111  -2.71309010   2.53004496
O   -3.59354463  -0.19170638  -0.37750360
H   -2.80732584   0.32072218  -0.18906572
H   -3.30646405  -0.84637019  -1.01408186
O    2.41919761   2.19066501   1.39095945
H    1.76527234   1.51877694   1.58378061
H    2.99837078   1.78391796   0.74648515
O   -2.65396798  -1.88102452   1.63155330
H   -3.21771600  -1.27053871   1.15644585
H   -1.85573138  -1.92955404   1.10553517
O    3.60306617   0.17887808  -0.24587283
H    3.52232580  -0.42268729   0.49428387
H    2.74143295   0.16375628  -0.66251582
O    1.16438037   2.63046366  -2.08379183
H    0.84652214   3.06020320  -1.28973772
H    1.22785744   1.70520721  -1.84693110
O   -0.41381254  -0.27913693  -3.39310220
H   -0.89263270   0.53502116  -3.23782915
H    0.22063932  -0.32457344  -2.67781331
O    2.80396205  -1.41559346   1.91894686
H    2.31626135  -2.23444238   1.83025469
H    2.13916643  -0.73099894   1.84405374
O   -1.47127480   2.07960476  -2.52969607
H   -0.56785496   2.39472492  -2.55733163
H   -1.55730200   1.67287258  -1.66748954
O    0.12739534   3.36629885   0.33630441
H   -0.44095288   2.59913037   0.26800599
H    0.92345156   3.03871719   0.75489323
O   -0.54875306  -1.28358495   3.38474112
H   -0.07056121  -0.68919465   2.80658494
H   -1.37034488  -1.45629485   2.92496942
O   -2.15914562  -1.95475407  -2.04434108
H   -1.61525913  -1.95820938  -1.25668164
H   -1.66748883  -1.42646331  -2.67316086
S    0.01179938  -0.08008291   0.08039714
O    0.99656166   0.10592184  -1.02221135
O   -0.51609525  -1.47298718   0.04511336
O    0.67984193   0.16486302   1.38952687
O   -1.11311084   0.88187070  -0.09084033
