41
Energy:  -1097.49901725
O    1.46915263  -1.72567075  -2.78663384
H    1.11950011  -0.95511782  -3.23409684
H    0.99635891  -1.75532357  -1.95487747
O   -1.89671958  -1.08931236  -2.68310503
H   -1.19540148  -1.30143086  -2.06715818
H   -2.60551257  -0.75457787  -2.13374434
O    3.62207748  -0.57738600   0.87929161
H    3.62062211  -0.33904043  -0.04775808
H    2.71430140  -0.45912480   1.15891409
O   -2.20034171  -0.76170358   2.63558588
H   -1.95424609  -0.12020428   1.96914199
H   -1.37526873  -1.17900825   2.88326155
O    3.19591404   0.14812473  -1.75212756
H    2.45123256   0.64853597  -1.41855608
H    2.80420098  -0.63170957  -2.14538470
O    1.42032683   3.39981687   0.26177345
H    1.58607014   3.04151163   1.13377021
H    1.23600409   2.63357113  -0.28148012
O    0.13146094   0.59746250  -3.49406913
H    0.40374198   0.88962625  -2.62416384
H   -0.66789580   0.09427667  -3.33894122
O    0.08061779  -2.29099780   2.68093831
H   -0.34497793  -2.73336499   1.94649199
H    0.54430008  -1.55491804   2.28166751
O   -1.10563925   3.20980972   1.33519035
H   -0.32990519   3.45605567   0.83137347
H   -1.31179875   2.32284261   1.04019976
O    1.06684682   2.17484468   2.73633066
H    0.20244729   2.49125149   2.47378158
H    1.13227241   1.30343158   2.34570225
O   -2.09756539  -2.61777980   0.63985426
H   -2.24406122  -1.99035860   1.34774793
H   -1.39953808  -2.22748135   0.11387246
O   -3.49818866  -0.45148884  -0.55151112
H   -3.26343633  -1.33172092  -0.25771754
H   -2.80020817   0.10885221  -0.21228702
S    0.08812673   0.07199493   0.07726884
O    0.76242522   1.01817853  -0.85555383
O   -0.13377127  -1.23067872  -0.61113703
O    0.94679585  -0.13986818   1.27639410
O   -1.22294288   0.64034808   0.49937213
