41
Energy:  -1097.65085592
O    2.98775213  -2.24431702   0.94559612
H    2.23886674  -1.74027115   1.26393601
H    3.00543730  -2.07849246   0.00303509
O   -2.40235534  -0.06281329  -2.23261873
H   -2.33551420   0.83774067  -1.91518104
H   -1.97362702  -0.58792479  -1.55683638
O    2.67262804   1.48938479   1.45614523
H    2.59214585   1.48255871   0.50235916
H    2.18812135   0.71545852   1.74341384
O   -2.62884018  -2.19375286   1.45443414
H   -2.78760215  -1.35218497   1.88197357
H   -2.01971885  -1.99109285   0.74441163
O    2.64777465  -1.49354736  -1.68884255
H    1.92841870  -2.06188574  -1.96407035
H    2.21760066  -0.70476403  -1.35868647
O    0.79863872   3.11827366  -1.21088745
H    0.67285871   3.34610025  -0.28974344
H    0.89901746   2.16635145  -1.21112295
O    0.07191215   0.01180774  -3.37146394
H    0.52048977   0.21158944  -2.54982093
H   -0.85666360  -0.00582315  -3.13980023
O   -0.59137572  -1.92286790   3.31156074
H    0.05149333  -1.49373455   2.74694069
H   -1.23980125  -2.28292112   2.70646747
O   -1.93277678   2.46805244  -1.19706396
H   -1.08671557   2.81995262  -1.47379224
H   -1.73803905   1.97267840  -0.40150527
O    0.50438126   3.19133599   1.53082379
H   -0.13704020   2.50208236   1.35837150
H    1.33127591   2.72472200   1.65226707
O   -2.35827568   0.15834334   2.90290347
H   -1.69873778  -0.43938877   3.25498007
H   -1.92497008   0.58553185   2.16399341
O    0.22698018  -2.56788573  -2.43743502
H   -0.16806527  -2.30149320  -1.60725073
H    0.21350861  -1.77581128  -2.97471375
S    0.02543877  -0.10711346   0.28208749
O    0.92811351   0.43920306  -0.76996602
O   -0.78846459  -1.21680959  -0.28908307
O    0.84097541  -0.62277796   1.41746854
O   -0.87886924   0.97193066   0.76993052
