41
Energy:  -1099.32600685
O    2.46620044  -2.81020225  -0.48357270
H    2.91068796  -2.02077822  -0.79255877
H    1.56572636  -2.53001532  -0.31964117
O   -2.82623129  -0.49916930  -2.21876006
H   -2.42941474  -0.08314115  -1.45345682
H   -2.38013251  -1.34292821  -2.29155171
O    3.30136729   1.24097357   0.93842674
H    3.02588923   1.92557756   0.32878663
H    2.49014761   0.79377926   1.17961488
O   -1.55459410  -2.66865432   1.80903580
H   -2.15665701  -1.92573941   1.85180896
H   -0.97047328  -2.46247308   1.07929337
O    3.42505462  -0.34254352  -1.30649343
H    3.59297894   0.11264997  -0.48136789
H    2.51382704  -0.13533096  -1.51375922
O    1.84737671   2.88175339  -0.75448439
H    1.29808442   3.06009663   0.00886580
H    1.51746530   2.05184069  -1.09891901
O   -0.50604705   0.02367615  -3.64154025
H    0.07117540   0.22953555  -2.90623895
H   -1.38761858   0.05137301  -3.26965804
O   -0.21564732  -0.83693397   3.38606816
H    0.25899863  -0.37579880   2.69447766
H   -0.50285997  -1.65319253   2.97684609
O   -2.39780925   2.58781984   1.04250084
H   -2.05015816   1.94805845   0.42115074
H   -2.66940508   2.06595857   1.79756929
O    0.28919909   2.98109541   1.54652829
H   -0.65193169   2.98421709   1.37190022
H    0.53013308   2.05471401   1.54694916
O   -2.58011445  -0.05845448   2.23338260
H   -1.78490548  -0.17447435   2.75339601
H   -2.26400076   0.10761312   1.34528039
O   -0.95712064  -2.49594036  -2.54909829
H   -0.59709106  -2.36482279  -1.67193312
H   -0.60412674  -1.77054688  -3.06429868
S    0.05025901  -0.12441071  -0.11181705
O    0.80101592   0.38177408  -1.29513485
O    0.01336694  -1.61354220  -0.14683667
O    0.72781556   0.32640813   1.13629333
O   -1.34116239   0.40771718  -0.14159000
