41
Energy:  -1096.86569716
O    2.70940981  -2.18166205  -0.58447554
H    3.04571868  -1.53823792   0.03933018
H    1.75817173  -2.08480443  -0.53979253
O   -3.10352160  -0.49177639  -1.91736266
H   -2.66841088  -0.11765046  -1.15124237
H   -2.57466361  -1.25674404  -2.14400239
O    3.43830643   0.29540391   0.53834453
H    3.37426829   0.41547375  -0.40913328
H    2.53962244   0.39116001   0.85366930
O   -1.01135492  -2.70480904   1.77356395
H   -1.53534023  -1.96320681   2.07637969
H   -0.62233998  -2.40432606   0.95221798
O    2.94801883   0.06415195  -2.16870278
H    2.89918457  -0.83473553  -1.84335933
H    2.07314738   0.42192505  -2.01760614
O    0.85585202   3.24373547  -0.11363233
H    1.13382176   2.76966626   0.67009152
H    0.74808471   2.56448434  -0.77939202
O   -1.10125448   0.51704700  -3.53469497
H   -0.45574670   0.71913857  -2.85741324
H   -1.91631069   0.37271642  -3.05398309
O    1.09592432  -1.45178550   3.02467593
H    1.10693928  -0.73055235   2.39544364
H    0.42507574  -2.04891426   2.69356980
O   -1.76305246   3.00177819   0.75980327
H   -0.91175365   3.27143460   0.41511847
H   -1.85469792   2.08917692   0.48595684
O   -0.57236350   1.82903514   2.96236769
H   -1.10630723   2.31959316   2.33747667
H   -0.00164398   1.28747817   2.41718228
O   -2.33439359  -0.35304188   2.49924923
H   -1.75534227   0.24775621   2.96826210
H   -2.21461326  -0.13017668   1.57609398
O   -1.05414455  -2.15396375  -2.75625265
H   -0.61418816  -2.06305734  -1.91102708
H   -0.89114139  -1.32286021  -3.20226693
S   -0.03330395   0.05005384  -0.16201454
O    0.47754907   0.79489147  -1.34706564
O    0.09721406  -1.41470271  -0.40191722
O    0.75876594   0.42867964   1.04188239
O   -1.46674488   0.39134697   0.05904232
