41
Energy:  -1099.15693919
O    1.66775565  -3.17338155  -0.13430476
H    1.60454753  -2.34959888   0.34903642
H    0.78521632  -3.32032100  -0.47454730
O   -2.91838419  -1.05883251  -1.99380012
H   -2.47785174  -0.86192138  -1.16712666
H   -2.43064633  -1.79886378  -2.35532099
O    3.27980484   0.77430843   1.68965552
H    2.88487928   1.62302231   1.48977956
H    2.60581498   0.13540917   1.45775628
O    0.13816881  -1.55275935   3.33821876
H   -0.75914991  -1.66773202   3.02543728
H    0.63699709  -1.31864597   2.55553548
O    1.65961016  -1.78786817  -2.51902173
H    1.94529713  -2.26616249  -1.74065848
H    1.36383385  -0.94094087  -2.18516194
O    1.39608822   2.88836098  -1.72768290
H    0.52428252   3.22034014  -1.51326156
H    1.31908114   1.93820684  -1.64102919
O   -1.43564356   1.10877642  -2.84873142
H   -0.62406280   0.85465632  -2.40942345
H   -2.05751998   0.41703185  -2.62291949
O   -1.03819223   0.96362929   3.42807532
H   -0.81151824   1.24274816   2.54097702
H   -0.46113410   0.21962260   3.60038263
O   -1.25334772   3.12935712  -0.94546199
H   -1.43887859   2.50379984  -1.64581065
H   -0.97251403   2.58762254  -0.20797440
O    1.82594076   3.03022778   0.98528571
H    1.89132988   3.08406066   0.03184031
H    1.05742721   2.48169373   1.14254083
O   -2.43873349  -1.17118738   2.39136095
H   -2.18122206  -0.33373590   2.77684082
H   -2.10067864  -1.13752446   1.49647684
O   -0.69920038  -2.90280790  -1.66837303
H   -0.94775465  -2.25168599  -1.01225347
H    0.03317503  -2.50320563  -2.13760232
S    0.07372227   0.01330477   0.14751603
O    0.59376339   0.32252448  -1.21411549
O    1.11265238  -0.72383626   0.92039852
O   -0.26128658   1.28310189   0.85142252
O   -1.15024010  -0.82857105   0.03235858
