41
Energy:  -1096.44351361
O   -0.12450584  -3.25373116   1.53350644
H   -0.78693346  -3.15040683   0.85031863
H    0.46865259  -2.51326523   1.40660044
O   -1.97037430  -2.64501364  -0.44856778
H   -1.32700031  -2.00105847  -0.74458045
H   -2.64734230  -2.12585055  -0.01449882
O   -1.18759328  -1.59057185   3.46962045
H   -0.86921794  -2.31666708   2.93328594
H   -1.19078075  -0.83835709   2.87767903
O   -2.05503842   2.63620747   0.71479737
H   -1.23194614   2.97084507   0.35875156
H   -1.80760374   1.83827812   1.18204109
O    1.51686028  -1.09663288   3.75288340
H    1.59848791  -0.96481933   2.80832320
H    0.58088415  -1.23744460   3.89554593
O   -0.23118088   2.77101802  -1.83733223
H    0.20866839   2.36054011  -1.09283753
H   -1.01139300   2.23524576  -1.98033218
O    1.90770186   1.75829100  -3.24892047
H    1.13868985   2.15534200  -2.84001597
H    1.81788494   0.82214452  -3.07061027
O   -3.49006296  -0.56448151   0.55048512
H   -3.39363206  -0.09561529  -0.27842826
H   -2.69678493  -0.34987778   1.04128757
O   -2.47599618   1.09218988  -1.51843108
H   -1.77013072   0.45823359  -1.39160354
H   -2.44307959   1.64708816  -0.73917743
O    3.14145500   1.99598291  -0.79510394
H    2.85524851   1.98385544  -1.70843335
H    2.33862479   1.86616001  -0.29028564
O    3.43736261  -0.71113516  -0.40459486
H    2.70916787  -0.87537309   0.19456303
H    3.46449707   0.24150507  -0.49388172
O    1.68574010  -0.86409358  -2.52000292
H    0.86923840  -0.80015790  -2.02455459
H    2.36802227  -0.92490067  -1.85140335
S    0.11711377   0.07766395   0.48151675
O    0.73152986   1.41412173   0.24387523
O    1.13910921  -0.84450450   1.05180674
O   -1.01671058   0.21533916   1.43838033
O   -0.38547341  -0.47430058  -0.80799528
