41
Energy:  -1095.21686724
O    2.52842067  -2.14692483   0.30250450
H    2.31236643  -1.40950821   0.87326639
H    1.69120679  -2.40554627  -0.08274831
O   -3.27867577  -0.29677123  -1.52444915
H   -2.76719804  -0.01798853  -0.76490811
H   -2.85966638  -1.10820452  -1.81122255
O    3.78897380   2.26327290  -1.51725182
H    2.97018877   2.61993176  -1.17284306
H    3.61512150   1.32874366  -1.62977880
O   -1.49817925  -3.13000316   1.64800056
H   -2.06029289  -2.41597342   1.94870247
H   -1.04081956  -2.77137415   0.88744866
O    2.93227377  -0.35900518  -1.78064070
H    2.98855799  -1.03175876  -1.10206383
H    2.04416701  -0.01104028  -1.70052409
O    1.29666464   2.95989373  -0.50585602
H    1.41790916   2.81719729   0.43285019
H    1.01761750   2.10895219  -0.84388419
O   -1.25330752   0.51464247  -3.22727541
H   -0.55045705   0.59120957  -2.58200760
H   -2.05403248   0.46477773  -2.70517877
O    0.10018767  -1.63756330   3.35135014
H    0.46677217  -1.03273262   2.70634821
H   -0.28148843  -2.34305839   2.82901704
O   -1.26002353   3.00833227   0.70219320
H   -0.54199837   3.12610106   0.08025894
H   -1.49134206   2.08237927   0.62915471
O    1.01418229   2.42404496   2.17323597
H    0.12822149   2.68536919   1.92220817
H    1.05706082   1.49067619   1.96535138
O   -2.44507774  -0.75109524   2.71671691
H   -1.59382923  -0.88829928   3.13238850
H   -2.24254566  -0.29516051   1.89981047
O   -1.53197939  -2.17006218  -2.60149286
H   -1.04560959  -2.16828269  -1.77706998
H   -1.29654207  -1.34243261  -3.02081422
S   -0.11092432  -0.25343817   0.06605591
O    0.44396217   0.48793650  -1.10123350
O   -0.23584444  -1.69805015  -0.27685981
O    0.80196522  -0.09716767   1.23323724
O   -1.45378023   0.29352863   0.40907974
