41
Energy:  -1096.52847108
O    1.64207143  -2.68087397  -1.61688486
H    2.20907153  -1.96264886  -1.89776815
H    1.17559274  -2.33489087  -0.85601353
O   -3.13997672  -0.80083097  -0.62731464
H   -2.39255706  -0.29348161  -0.94384635
H   -2.77933021  -1.66717905  -0.43861662
O    3.10299400   0.29728727   1.94456317
H    2.70050401   0.41188950   1.08369153
H    2.36408288   0.17458552   2.54053842
O   -0.94079086  -2.04922468   2.63944515
H   -1.61617098  -1.37255103   2.59247378
H   -0.41080079  -1.91425632   1.85387152
O    2.64416242  -0.33406595  -2.66799264
H    1.80455588  -0.44290828  -3.11458648
H    2.41979074   0.07210575  -1.83078672
O    1.73165191   3.28451263  -0.64316048
H    1.04638036   3.48389744  -0.00528867
H    1.85006415   2.33677824  -0.57983644
O    0.07272405  -1.14105472  -3.32703590
H   -0.31790721  -0.53950212  -2.69317981
H    0.43882747  -1.84681898  -2.79402845
O    0.75063584   0.03648716   3.48508770
H    0.40338061   0.52448068   2.73842314
H    0.32679995  -0.81999996   3.43008954
O   -0.63275601   2.97308656  -2.04684359
H    0.28121302   3.12082120  -1.80380669
H   -0.78146845   2.04451269  -1.86833020
O   -0.69980792   3.51651304   0.66726653
H   -0.91771368   3.41138821  -0.25885317
H   -0.60487240   2.62201134   0.99450620
O   -2.71532500  -0.03591262   1.99580550
H   -1.89603463   0.42950030   1.82732419
H   -3.03594033  -0.27945638   1.12740231
O   -1.86243024  -3.10467288   0.17880799
H   -1.92332551  -3.08225602   1.13380595
H   -1.08505203  -2.58445000  -0.02437450
S    0.18349112   0.12821823  -0.04164300
O    1.56675439   0.57629316  -0.36708358
O    0.19064921  -1.33267818   0.25132536
O   -0.31168328   0.87152580   1.15099952
O   -0.71175585   0.39773213  -1.20181330
