41
Energy:  -1097.66188239
O    1.30685283   2.63639536  -2.13190102
H    1.68172969   1.76023311  -2.04224119
H    0.49445065   2.60266826  -1.62682971
O    0.99508292  -2.99327895   0.84343020
H    1.61687350  -2.79021438   0.14459324
H    0.60794029  -2.14853929   1.07314160
O    3.46633181   1.15728649   0.44798148
H    3.26005646   2.08441282   0.32915773
H    2.80380813   0.69617532  -0.06648009
O    0.57579851   2.97771593   1.75881622
H    0.98815568   2.24277193   2.21274433
H    0.08937947   2.57356816   1.04028094
O   -3.24964965  -3.60776740  -1.23511020
H   -2.29954088  -3.61782265  -1.35097248
H   -3.44824674  -2.71313826  -0.95865091
O   -2.55039597  -0.16895812   2.03455672
H   -1.63333820  -0.35058562   1.82901270
H   -2.73499191   0.66111002   1.59507627
O    2.13122097  -2.39252451  -1.62994225
H    1.99895332  -1.46255378  -1.44584564
H    1.25528216  -2.72547885  -1.82514587
O    1.83990646   0.70137545   2.62448082
H    1.14332562   0.20597277   2.19368718
H    2.51323527   0.80324967   1.95181314
O   -0.51206717  -3.26292024  -1.45236724
H   -0.72106325  -2.33109899  -1.51764849
H   -0.15054436  -3.36669325  -0.57216030
O   -3.14553029   1.75657318   0.10309201
H   -3.38466358   0.91654539  -0.28857167
H   -2.20775834   1.84295856  -0.06823574
O   -3.43522813  -0.95679484  -0.45977179
H   -2.58188690  -0.86491266  -0.88356214
H   -3.24394635  -0.91239129   0.47706943
O    2.54899273   3.70832026   0.04265223
H    2.16562842   3.40448160  -0.78011487
H    1.86887896   3.54979731   0.69728768
S   -0.00843039   0.14141391  -0.35641823
O   -0.91117345  -0.64028137  -1.24754531
O    1.37939155   0.10192240  -0.89724229
O   -0.47623389   1.55459206  -0.29170803
O   -0.02570579  -0.45057745   1.01082272
