41
Energy:  -1095.29068234
O    2.70769557   1.33245307   0.24621494
H    2.10218780   0.60013557   0.36155476
H    2.96423907   1.28893508  -0.67493839
O   -1.06741111  -2.43616838   2.83136159
H   -1.18969271  -2.36183048   1.88491934
H   -0.20977706  -2.04347558   2.99411304
O    3.38341489   0.86497187   2.91928241
H    3.28835443   1.11330307   1.99975701
H    2.61116484   0.33064394   3.10463445
O   -3.49880399   0.85336498  -1.01632636
H   -3.20637856   0.42154294  -1.81897755
H   -2.71012491   0.91849070  -0.47783236
O    3.05161986   0.95721735  -2.44299235
H    2.18921598   1.34079163  -2.60224743
H    2.87860434   0.02558032  -2.30753040
O    2.26011561  -1.60139710  -1.92265839
H    2.22334717  -1.50831562  -0.97070473
H    1.37626361  -1.38452362  -2.21931203
O   -2.67053793  -1.02710251  -2.90517814
H   -3.07320905  -1.52805915  -2.19586139
H   -1.76952490  -0.88316917  -2.61588491
O    1.06230932  -0.65075725   3.07600742
H    1.14317699  -0.73961535   2.12637776
H    0.27557872  -0.12009805   3.20125764
O    0.49201950   1.84443187  -2.64381030
H    0.39937555   2.33584983  -1.82762568
H    0.14526176   0.97550185  -2.44144548
O   -3.77960183  -1.86570039  -0.52273486
H   -2.88937040  -2.00792245  -0.20103200
H   -3.89143920  -0.91518484  -0.50710036
O   -1.53078148   0.30996417   2.98447540
H   -1.64165597  -0.64017207   2.95012672
H   -1.46330222   0.57700170   2.06775879
O    0.41045633   2.85722801  -0.09339484
H    1.25145537   2.44916423   0.11260615
H   -0.23865675   2.18198368   0.10390986
S   -0.41367115  -0.59797639  -0.18846718
O   -0.30875191  -0.56131640  -1.67431643
O   -1.19811794  -1.79550646   0.22464898
O    0.95149248  -0.66980718   0.40421202
O   -1.09930721   0.63472449   0.29158672
