41
Energy:  -1100.83062302
O    1.46311273  -3.11146464  -0.22234059
H    0.99945870  -3.16801772   0.61315839
H    1.50037715  -2.17421913  -0.41316528
O   -2.23715509  -1.93886930  -1.62328887
H   -1.88473365  -1.59738514  -0.80144975
H   -1.51826612  -2.44609627  -2.00031846
O    3.45506332   1.02142670  -0.53087480
H    2.74003115   0.39174740  -0.62287926
H    3.32593871   1.40620332   0.33601945
O    0.12179083  -2.66988978   2.17474809
H    0.70162272  -1.99932584   2.53581711
H   -0.46663202  -2.18987879   1.59201329
O    0.62592154  -0.55796890  -3.20041222
H   -0.20540157  -0.08483941  -3.16460430
H    0.97077988  -0.50501161  -2.30906487
O    1.62480509   3.09620694  -0.86815548
H    0.80681061   2.61533561  -0.74214101
H    2.28120543   2.41685811  -1.02260814
O   -1.77816764   0.61915089  -2.58725070
H   -1.36275054   1.02721218  -1.82754913
H   -2.06174274  -0.23950197  -2.27335221
O   -1.08711931   1.16527417   3.53745765
H   -1.82110949   0.67655266   3.16511164
H   -0.33949659   0.93167172   2.98725586
O   -2.04022441   2.71525945   1.42379842
H   -1.50331832   2.37250598   0.70931696
H   -1.60106122   2.41479477   2.21946702
O    2.54549629   2.42217104   1.66248973
H    2.17670617   2.89522039   0.91653396
H    1.92753934   1.70919392   1.82381138
O   -3.08162991   0.19383092   1.88883823
H   -2.95087228   1.09514182   1.59426575
H   -2.44419952  -0.31669115   1.38955720
O    0.03362636  -3.14923379  -2.59409326
H    0.49681999  -3.24091296  -1.76145982
H    0.27062806  -2.27573806  -2.90564941
S    0.11499276   0.13204068   0.31895551
O   -0.42204779   1.37281589  -0.30727473
O    1.16980875  -0.45025387  -0.55762666
O    0.70021355   0.46035067   1.64930479
O   -0.98800345  -0.85474999   0.49141865
