41
Energy:  -1103.04181609
O    1.27387138  -0.49654495  -3.23479770
H    1.08630422   0.25012314  -2.66599442
H    1.35945785  -1.23863475  -2.63629162
O   -2.12936533   1.09001414  -1.60577811
H   -2.48549554   0.39232930  -1.05565177
H   -1.18792056   1.07454104  -1.43351619
O    2.75660441  -1.42988467   2.79730459
H    1.86409374  -1.65135034   3.06302907
H    2.64594936  -0.78535887   2.09832405
O   -1.27043872  -2.63774539  -1.81393724
H   -0.47721371  -2.36348152  -1.35371418
H   -1.36583944  -2.00494167  -2.52575885
O   -1.05630788   2.04115970   2.30098236
H   -0.88264560   1.16795327   1.94943750
H   -1.38128288   2.54106497   1.55217143
O    2.02310570  -3.37932513   0.99629632
H    2.49790601  -2.77118205   1.56282833
H    1.64634243  -2.82573291   0.31232488
O   -2.73446894  -1.08918605  -0.07371518
H   -2.34697126  -1.74716530  -0.65089860
H   -2.00769777  -0.79255372   0.47404825
O   -1.74779708   3.35713683  -0.02455424
H   -0.80781867   3.46062502  -0.17275224
H   -1.99302924   2.60107202  -0.55790124
O    0.12510984  -2.33402227   2.75199277
H    0.59605417  -2.86314808   2.10819998
H   -0.19109321  -1.57851429   2.25655845
O    1.66523714   2.52028420   2.11339274
H    1.93669943   1.70316680   1.69523101
H    0.73939580   2.38913961   2.31796735
O   -1.41811805  -0.61411675  -3.65433543
H   -1.72974054   0.02623838  -3.01475075
H   -0.46386866  -0.56637035  -3.59636789
O    0.96021736   3.40199504  -0.37993756
H    0.84074561   2.52319241  -0.74002683
H    1.30708651   3.25563375   0.50011472
S    0.72206547  -0.19426364   0.05551059
O    0.88863139  -1.52355256  -0.59667554
O    1.97392649   0.16394549   0.77982420
O    0.43668311   0.83593787  -0.98244018
O   -0.41097912  -0.25338534   1.02133387
