41
Energy:  -1099.33789834
O    2.80164380  -1.55716374  -0.07594288
H    2.92254965  -0.90950718   0.61843066
H    1.85411720  -1.68447052  -0.12304026
O   -3.18433961  -1.24557746  -1.81215231
H   -2.86219886  -0.74252169  -1.06422713
H   -2.52926215  -1.93170694  -1.93994785
O    2.93865275   0.53942527   1.70040166
H    3.17149812   1.29477106   1.16052425
H    1.98286356   0.50327384   1.66309288
O   -1.11084848  -2.90102101   1.90671612
H   -1.89334623  -2.35441509   1.97848722
H   -0.63957788  -2.54756593   1.15225911
O    2.67322626   0.59628659  -1.80110813
H    2.85842511  -0.20577703  -1.31261331
H    1.72559937   0.70909208  -1.72687841
O    3.13258673   2.64904457  -0.04654824
H    2.25866832   2.90595062   0.24755677
H    2.97429631   1.98841347  -0.72089425
O   -1.27315115  -0.09231163  -3.44405838
H   -0.70679829   0.27774319  -2.76690573
H   -2.08219726  -0.31636119  -2.98419096
O   -0.36049566  -0.76648945   3.50714638
H   -0.07201295  -0.17772870   2.80974380
H   -0.41237958  -1.62613065   3.08934630
O   -1.43775308   2.96274006  -0.92741145
H   -0.82502099   2.30547774  -1.25725608
H   -2.06579295   2.46434888  -0.40453096
O    0.60347692   3.22699994   0.93978038
H   -0.07414402   3.34077773   0.27335985
H    0.53673722   2.30694173   1.19526138
O   -2.90433041  -0.82930183   2.46007671
H   -2.12993441  -0.65888684   2.99626830
H   -2.68435748  -0.47110075   1.60011406
O   -0.85332664  -2.62813021  -2.41145821
H   -0.47137765  -2.37866754  -1.56996240
H   -0.80828205  -1.83196425  -2.94091322
S   -0.36396727  -0.04278368   0.00766225
O    0.06096311   0.70450745  -1.20933822
O    0.04063357  -1.47110135  -0.12003581
O    0.28705429   0.55238560   1.20851381
O   -1.84452008   0.04307358   0.15150922
