41
Energy:  -1097.51756598
O    2.79192232  -2.57966724   0.13127731
H    3.16879563  -1.86877444  -0.38721066
H    2.01076326  -2.19718640   0.53094064
O   -3.27950389  -0.79047459   0.94090458
H   -2.60694513  -0.15297732   0.70112594
H   -2.82141092  -1.42819419   1.48834991
O    1.53361500   0.33119397   3.00959425
H    1.62221348   1.15373545   2.52813016
H    1.31403292  -0.31645812   2.33984629
O    1.44402474  -2.69719290  -2.27659851
H    0.70862245  -2.12165660  -2.06642410
H    1.84035463  -2.89940071  -1.42909248
O    3.21156820  -0.61301866  -1.77889071
H    2.62719997  -1.24878213  -2.19186823
H    2.62511113  -0.00532260  -1.32832944
O    1.61230428   2.62232989   1.40904917
H    0.75836763   3.03053679   1.26625154
H    1.68568444   1.96954373   0.71283266
O   -1.40854876   0.74074453  -3.23861679
H   -0.86354685   0.15668316  -2.71128664
H   -2.30537632   0.53632092  -2.97377123
O   -1.38243213  -2.01513957   2.59765737
H   -1.43999138  -1.14412517   2.99040754
H   -0.66372816  -1.94792181   1.96902535
O    0.33421675   2.67690267  -2.17801448
H   -0.32250124   2.13686645  -2.61768961
H    0.80320939   2.06770019  -1.60779515
O   -0.86790879   3.29780379   0.24929641
H   -0.46143079   3.30342476  -0.61729224
H   -1.05468600   2.37479832   0.42078117
O   -1.16951057   0.65780622   3.20812324
H   -0.22542749   0.56608889   3.33668035
H   -1.27677530   0.72878625   2.25960442
O   -3.01787573  -1.28223690  -1.75519717
H   -3.29080225  -1.16518965  -0.84522854
H   -2.06158845  -1.25391762  -1.72446456
S    0.12096221  -0.18369287  -0.12093972
O    1.23762158   0.73965868  -0.46820585
O   -0.34402565  -0.88523652  -1.35046108
O    0.59657939  -1.18644670   0.87322983
O   -1.00632648   0.59725305   0.46167825
