41
Energy:  -1096.08501561
O    1.50557677  -3.16531996  -1.79905746
H    0.57306788  -2.97081548  -1.89300976
H    1.66692114  -3.11765776  -0.85675806
O   -3.29419889  -0.51097710  -1.11151234
H   -2.84140911   0.03531279  -0.46903228
H   -2.81244356  -1.33808354  -1.10530165
O    3.19111450  -0.37189895   0.83218254
H    3.08981588  -0.38774286  -0.11951038
H    2.40811130   0.07810619   1.14940993
O    1.81965805  -2.75938671   0.87872630
H    0.96910475  -2.33105826   0.78215671
H    2.44167372  -2.03845410   0.97662688
O    2.56007149  -0.60753444  -1.85264960
H    2.24379182  -1.50762323  -1.93036182
H    1.77813924  -0.09535514  -1.64652784
O    0.84953905   3.26897479  -1.10015393
H    1.05834171   3.35891532  -0.17034535
H    0.71206090   2.33003044  -1.22551392
O   -1.38734073  -0.01432953  -3.03702048
H   -0.69880224   0.29844562  -2.45023406
H   -2.18276761   0.00389838  -2.50485916
O   -0.12893272  -0.91758764   3.45930415
H    0.30291233  -0.21940009   2.96708889
H   -0.36254577  -1.56859878   2.79760838
O   -1.60101016   3.51823911   0.16095650
H   -0.88688477   3.52484421  -0.47639203
H   -1.75690639   2.59038914   0.33708895
O    0.73297274   3.38660333   1.66486568
H    0.83021800   2.43504263   1.70102402
H   -0.17130987   3.52489309   1.38311978
O   -2.53887571   0.39935245   3.07772960
H   -1.74393371  -0.04136234   3.37784549
H   -2.35295808   0.63741281   2.16943793
O   -1.18539198  -2.44858195  -1.80178742
H   -0.89823687  -2.12426379  -0.94821169
H   -1.16462843  -1.67882796  -2.37036417
S   -0.22790454   0.21339028   0.33763333
O    0.29601201   0.59603850  -1.00370622
O   -0.34934159  -1.26942729   0.41890504
O    0.70881506   0.69354851   1.39219698
O   -1.56710365   0.83340141   0.54313754
