41
Energy:  -1098.91255285
O    2.91697000  -2.68269279  -0.84257215
H    2.35706497  -2.70176595  -0.06644432
H    2.99803858  -1.75340139  -1.05722821
O   -3.91032466   0.15073890   1.41465616
H   -3.17636452   0.52386073   0.92648154
H   -3.55525721  -0.02271702   2.28647724
O    1.11969276  -2.58945992   1.21097674
H    1.31089538  -1.88926515   1.83499653
H    0.49425675  -2.20138659   0.59904476
O   -2.59983492  -2.25158631   0.97032946
H   -3.18207490  -1.49184933   0.96502038
H   -1.86699704  -1.99623888   0.40999190
O    2.89379374  -0.03884608  -1.50076332
H    2.32352682   0.27280886  -0.79798407
H    2.33368479  -0.05066281  -2.27688843
O    1.34011871   3.37347870   0.08589118
H    1.35867418   2.42750433   0.23087407
H    0.84363742   3.48226155  -0.72522192
O    1.04577804  -0.30532493  -3.53501637
H    0.46012909   0.23175211  -3.00135411
H    0.87734135  -1.20258971  -3.24730673
O    1.25793833  -0.34513896   2.78062729
H    1.29723506   0.09774371   1.93295840
H    0.32267003  -0.41353881   2.97252966
O   -0.71963758   3.59496112  -1.78183621
H   -0.65743087   2.64963068  -1.91862993
H   -1.13431933   3.68654082  -0.92399936
O   -1.27499165   3.56808638   0.93575495
H   -1.48741955   2.63776014   0.86092637
H   -0.32054158   3.60221495   0.87178510
O   -1.52772519  -0.50738333   2.88001697
H   -1.47979434   0.14748154   2.18353547
H   -1.71280993  -1.32879944   2.42476861
O    0.59429380  -2.71501013  -2.31013796
H    1.44082812  -2.82327928  -1.87667599
H    0.06980158  -2.20917647  -1.68943508
S   -0.37702922   0.33430657  -0.31455643
O    0.94626691   0.66843757   0.28322600
O   -0.52468490  -1.14599555  -0.39824295
O   -1.46292236   0.89432848   0.53826922
O   -0.46677655   0.92045580  -1.68147798
