41
Energy:  -1103.83894840
O   -0.53729006   3.13732908  -1.59768223
H   -0.37375915   2.66454300  -0.78161679
H   -0.24401006   2.53880665  -2.28469721
O   -0.19099561  -3.36575466  -0.39511780
H    0.73301734  -3.19608893  -0.57854481
H   -0.60641109  -2.50450232  -0.43877832
O    2.40403901  -2.42710953  -0.93043831
H    2.81851139  -2.28203758  -0.07990987
H    2.01698209  -1.58126130  -1.15618056
O   -2.74548695  -1.32197226   1.56911043
H   -2.25418099  -1.11432814   0.77429333
H   -2.13656494  -1.83483442   2.10054081
O    0.16713730   1.03191489  -3.21938456
H    0.69214087   0.69034286  -2.49555332
H   -0.70660933   0.66894653  -3.07428926
O    1.94048899   1.87565703   2.26558510
H    1.22995908   2.17529958   1.69849302
H    1.77952909   0.93872060   2.37727164
O   -0.45993759  -2.77355951   2.33848780
H    0.00938489  -1.95337670   2.18594794
H   -0.45788012  -3.21297143   1.48810861
O    3.59661760   1.04808849   0.17840220
H    3.15839541   1.46277720   0.92152159
H    2.88272065   0.72870330  -0.37348194
O   -2.33006348   0.13596981  -2.45167243
H   -1.88086102  -0.29286725  -1.72328533
H   -2.71689559   0.92189309  -2.06577432
O   -2.73198199   1.49587855   1.41020575
H   -1.81422053   1.58459008   1.15315317
H   -2.84986535   0.55772442   1.55920973
O    3.35132154  -1.39906286   1.45274262
H    3.67258445  -0.62345069   0.99290812
H    2.41311472  -1.24281206   1.56037857
O   -3.14193715   2.42976544  -1.16738298
H   -3.09761523   2.08867107  -0.27411816
H   -2.26157167   2.76301169  -1.34097856
S    0.23518405   0.05863486   0.15821514
O    0.79218114  -0.56807987   1.38991433
O   -0.93699808  -0.73065391  -0.31413250
O   -0.19432936   1.45287719   0.46104606
O    1.27988251   0.08039604  -0.90396733
