41
Energy:  -1095.04758532
O    2.24495824  -2.19499438  -1.24988038
H    1.62355864  -1.99115583  -0.55092098
H    2.89096969  -1.48979954  -1.20986431
O   -2.26518353  -3.07853556  -2.51695654
H   -2.55050915  -2.66643279  -1.70148584
H   -1.44037711  -2.64228415  -2.73052370
O    3.73926343   0.01999256  -0.47051327
H    2.91533795   0.49503461  -0.57874310
H    3.69226854  -0.34363857   0.41367887
O   -2.74629464  -1.70639261  -0.15803190
H   -2.16807104  -1.03129944  -0.51319174
H   -2.19234037  -2.20526006   0.44238278
O    2.96107894  -0.73363034   2.09377553
H    2.75423855   0.16666803   2.34459765
H    2.18059348  -1.03933360   1.63158529
O    0.63184395   3.65020760  -0.92658294
H   -0.03259794   3.73331301  -0.24259294
H    1.00165929   2.77688303  -0.79707367
O   -1.63745390   2.45289585  -1.97132981
H   -0.79236534   2.89031427  -1.86778126
H   -1.47638886   1.55095594  -1.69421197
O   -1.16027859  -2.57091867   1.92683139
H   -1.64532288  -1.83542762   2.30101957
H   -0.40390549  -2.16767246   1.50077497
O   -1.62102404   3.31548240   0.65690779
H   -1.88267575   3.02701059  -0.21748014
H   -1.26006642   2.53125252   1.07033848
O    2.02603728   1.86992007   2.35373038
H    2.18063456   1.90260392   1.40966296
H    1.10075419   1.63958211   2.43756038
O   -2.69800181  -0.30981807   2.28188393
H   -1.93620215   0.23877632   2.09496867
H   -2.97257108  -0.63889271   1.42599057
O    0.03479726  -1.58038853  -2.83480703
H   -0.34069101  -0.92193148  -2.25027754
H    0.84132927  -1.85603363  -2.39919511
S    0.15131345   0.27431775   0.21224227
O   -0.86450412   0.09381805  -0.86276216
O    0.67180460  -1.05710562   0.63236221
O    1.27495121   1.10744569  -0.30101794
O   -0.47699790   0.95311290   1.38038696
