41
Energy:  -1097.57658462
O    3.24549053  -1.48226378   0.12784143
H    2.75247244  -0.72429667  -0.18624593
H    2.70671852  -2.23575271  -0.11342813
O   -1.80456347  -1.60159720  -2.37298992
H   -1.61323883  -0.73196845  -2.02174561
H   -2.07315288  -2.11452559  -1.61075895
O    1.72061669  -1.82030148   2.44897837
H    2.45210379  -1.67034788   1.85008574
H    0.93985353  -1.65774561   1.91962375
O    1.23125021  -3.18092329  -0.65528723
H    1.21234800  -2.77177953  -1.52043227
H    0.72070932  -2.59169907  -0.09995431
O    0.95253984  -1.57709337  -2.84832856
H   -0.00110614  -1.62089572  -2.77852496
H    1.20472162  -0.87233849  -2.25170744
O    2.06698876   2.72678422  -1.66783947
H    1.66406475   3.20705015  -0.94449397
H    1.95619616   1.80495026  -1.43507561
O   -0.63614248   2.84955666  -2.29483875
H    0.31613445   2.75962464  -2.33107058
H   -0.93893492   2.03553995  -1.89243923
O    0.77896116   0.49392351   3.60287286
H    1.17291896  -0.34768360   3.37325018
H    0.59104332   0.90863290   2.76089016
O    0.28038802   3.80822298   0.14062835
H    0.27055282   2.97972472   0.61992549
H   -0.24142673   3.63801485  -0.64357214
O   -1.99044631   1.22499515   2.73979297
H   -1.32991574   1.42146068   2.07546436
H   -1.52179459   0.71552949   3.40088462
O   -3.41646502   0.34161909   0.48219202
H   -3.06025687   0.60762190   1.32988897
H   -2.69438342   0.47077077  -0.13274687
O   -2.52893276  -2.28399666   0.26710035
H   -3.03423292  -1.47388780   0.33512402
H   -1.62658985  -2.01979712   0.44656546
S    0.07451379   0.23879774  -0.02330793
O    1.33889362   0.27030681  -0.81099493
O   -1.07708896   0.53737797  -0.92039263
O   -0.10214271  -1.11273561   0.57856422
O    0.13839319   1.26024180   1.05959164
