41
Energy:  -1099.23321684
O    3.56937458  -0.75621033  -1.21905273
H    3.80779928  -0.24628196  -0.44487021
H    2.65776646  -1.00706043  -1.06979887
O   -0.50108758  -3.28259405  -0.21271072
H    0.16168193  -2.60130701  -0.32592025
H   -1.31488945  -2.87801820  -0.51317161
O    3.43684199   0.59728562   1.23279828
H    3.09289432  -0.20473666   1.62610747
H    2.67200809   1.02032730   0.84254618
O   -3.22881865  -1.48669912   1.82781967
H   -3.12672172  -0.53539988   1.85676485
H   -2.37407274  -1.82791428   2.09090426
O   -0.04924758   1.78850304  -3.17053331
H    0.89198732   1.70496937  -3.01778892
H   -0.45041093   1.21954988  -2.51357660
O    2.58218036   1.60026134  -2.27005393
H    3.01987345   0.75631263  -2.15866639
H    2.07781346   1.71713572  -1.46495378
O   -2.67870983  -1.74299937  -0.86339856
H   -2.09194643  -1.00569754  -1.03170354
H   -2.95312914  -1.62848141   0.04644292
O    2.24693795  -1.91437229   1.94344320
H    1.94164506  -1.70278932   1.06125232
H    1.44547089  -2.05665295   2.44706866
O   -2.54300575   2.40110880  -0.60576641
H   -1.83070577   3.03927008  -0.64590080
H   -2.12798241   1.56466146  -0.81634499
O   -0.09342140   3.62106558  -1.07433854
H    0.36077220   2.98146714  -0.52583707
H   -0.17819395   3.19050186  -1.92502082
O   -2.70450528   1.22722411   1.89913402
H   -2.80369594   1.71514615   1.08162247
H   -1.82706044   0.84820997   1.84745532
O   -0.63276655  -2.37515755   2.39428081
H   -0.56203203  -2.85578937   1.56952538
H   -0.52272253  -1.45697596   2.14716802
S    0.21559822   0.16881567   0.00444797
O   -0.87161879   0.30618009  -1.00510152
O   -0.38194034   0.03566571   1.36287307
O    1.02764897  -1.04232560  -0.30183694
O    1.08830308   1.37574246  -0.03814273
