41
Energy:  -1100.58319347
O    2.64381912   1.88175847   1.91723086
H    1.89861820   1.98145125   1.32480466
H    2.38868415   1.17186077   2.50645344
O   -0.98843561  -2.15833019  -2.41201004
H   -0.86523671  -1.22148943  -2.25909419
H   -0.15404587  -2.55430309  -2.16055214
O    3.37710367   0.03603606  -0.04482237
H    3.32593834   0.80125182   0.52794180
H    2.54802274  -0.42226699   0.09234535
O   -0.54744693  -2.86635469   1.57809826
H   -1.32713355  -2.77854642   1.02981883
H    0.05373309  -2.19804782   1.24919044
O    1.57999343  -2.58282312  -1.50669580
H    1.28636174  -2.13090656  -0.71563088
H    1.89627511  -1.88379537  -2.07902259
O   -1.04997428   3.82912706  -0.06936143
H   -0.38016214   3.17606939   0.13336802
H   -1.87957673   3.36571113   0.04569197
O   -1.47339815   2.52355363  -2.47764734
H   -1.16739682   3.11127119  -1.78686293
H   -1.02336188   1.69640685  -2.30581192
O    1.45022614  -0.39246733   3.05615988
H    1.40984978  -0.57266427   2.11694177
H    0.53481580  -0.36186394   3.33422315
O   -3.18643557   2.08676323  -0.34010704
H   -2.79648431   2.14510896  -1.21232584
H   -2.69364753   1.39234310   0.09712571
O    2.25667596  -0.14947289  -2.62460626
H    2.75947199   0.04069295  -1.83260566
H    1.35515903   0.07778778  -2.39689665
O   -1.32599814  -0.73714129   3.15222474
H   -1.48696335  -0.22534797   2.35951442
H   -1.08511442  -1.60638920   2.83188904
O   -2.56733824  -2.15865164  -0.13873379
H   -2.33707770  -1.28214257   0.16939570
H   -2.10496411  -2.24929309  -0.97193613
S   -0.09401455   0.35888740  -0.05339850
O   -0.23645061   0.29168813  -1.53505171
O    0.50291575   1.66936739   0.32924545
O   -1.43486776   0.21962981   0.58128254
O    0.79234442  -0.74513575   0.41092973
