41
Energy:  -1095.21876278
O   -2.13886539  -0.46273310   2.95663777
H   -1.33268066  -0.54582871   2.44733122
H   -2.83991143  -0.52122451   2.30752680
O   -0.46479536  -3.24782440   0.85521954
H   -0.37398191  -2.32573526   1.09550352
H   -0.91894345  -3.23268645   0.01275162
O   -3.97765835   0.13214665   0.94130381
H   -3.33296566  -0.13741275   0.28713189
H   -3.65600569   0.97460024   1.26230750
O    2.80327180   1.26421804  -0.50352067
H    2.05252693   0.75435886  -0.80791777
H    2.41770448   1.98616471  -0.00717130
O    1.50949693   1.79325744  -2.98841123
H    0.98941875   1.11142045  -2.56314795
H    2.28038473   1.89079448  -2.42943862
O   -1.48454155  -2.87446701  -1.66985652
H   -1.76148158  -2.01206856  -1.36033274
H   -0.58272294  -2.74574725  -1.96377193
O   -0.09851282   3.55854632  -1.62648474
H    0.40623988   2.99847095  -2.21620683
H   -0.48389637   2.95379533  -0.99245982
O    2.57173274  -0.75082283   1.40032796
H    1.61617078  -0.70731775   1.43554861
H    2.82035137  -0.06687798   0.77852409
O    1.37344232   3.27844084   0.69377697
H    0.66767085   2.65712711   0.87290744
H    1.11662885   3.70405107  -0.12422953
O    1.18372754  -2.34584493  -2.16027727
H    0.95816432  -1.44895470  -1.91341497
H    1.61208565  -2.70775464  -1.38454373
O   -2.53993295   2.15033606   2.18344278
H   -1.92925911   2.12884174   1.44666106
H   -2.34311470   1.35696846   2.68150130
O    2.18253257  -3.22399030   0.25046402
H    1.26585130  -3.34362323   0.49868824
H    2.42588545  -2.37986567   0.63054931
S   -0.56317983   0.17713771  -0.11473057
O   -0.77524902   1.61470255   0.21471441
O   -1.84089832  -0.41443136  -0.60215389
O    0.47570532   0.05887930  -1.17625429
O   -0.11227728  -0.55059964   1.10477148
