41
Energy:  -1099.81264629
O    1.91449994  -2.73413760  -0.04756144
H    2.55399503  -2.03520770  -0.18458285
H    1.06476672  -2.30474824  -0.14660732
O   -3.61682741  -0.25321957  -0.15052024
H   -2.90157468   0.23910420   0.25229820
H   -3.36577802  -1.17086583  -0.04501478
O    3.29918816  -0.42154353  -0.61818624
H    2.94318904  -0.21377649  -1.48208978
H    2.66876892  -0.04761931  -0.00256939
O   -2.29315487  -2.60018926   0.57639868
H   -2.17503491  -2.26703249   1.46594131
H   -1.58618552  -2.19638071   0.07304507
O    1.84215900   0.09761036  -2.91080286
H    1.47003159  -0.78345770  -2.94917093
H    1.19582723   0.61017422  -2.42524610
O    0.53830880   3.73538940  -0.60584620
H    1.05824670   3.52539792   0.16991150
H    0.31864336   2.88441699  -0.98508874
O   -2.54463344   1.03607775  -2.43120317
H   -1.64661596   1.15743200  -2.12286960
H   -2.98243698   0.57118550  -1.71815682
O    1.33899389  -1.66907254   2.50507084
H    1.33987474  -0.81337539   2.07610295
H    1.53657820  -2.28946892   1.80342946
O   -1.30557459   3.30882307   1.42701289
H   -0.88342290   3.59443073   0.61679806
H   -1.44037305   2.36855770   1.30885086
O    1.38421503   2.89008401   1.89915321
H    0.44412798   3.04831574   1.98535590
H    1.44760731   1.99194756   1.57424678
O   -1.43010748  -1.21680202   2.83603986
H   -0.50346325  -1.45602613   2.81776006
H   -1.49861067  -0.47588659   2.23389080
O    0.76626583  -2.42175368  -2.61538950
H    1.40701347  -2.82625791  -2.03053855
H    0.17623005  -1.94474459  -2.03182121
S   -0.10749740   0.27488366  -0.00989648
O   -0.04540779   1.15428063  -1.21110664
O   -0.25141210  -1.14433295  -0.44026001
O    1.14424526   0.42878507   0.78354835
O   -1.27741497   0.66080189   0.82823241
