41
Energy:  -1098.68463986
O    2.06212690  -2.25412162   1.57831163
H    2.65113108  -1.49983379   1.55944865
H    1.38223868  -2.04376830   0.93820591
O   -3.10370054  -1.39667168  -1.02484589
H   -2.63917854  -0.59142572  -0.79674478
H   -2.78380943  -2.04437390  -0.39684640
O    3.39511868   0.11498614   1.09612446
H    3.44238712  -0.08683751   0.16163809
H    2.52276684   0.49004262   1.21681726
O   -1.69318354  -2.78069951   0.88312821
H   -1.96929076  -2.10894814   1.50662380
H   -0.93813963  -2.39775782   0.43647824
O    2.95529395  -0.60874296  -1.52976308
H    2.42334931  -1.33456046  -1.20348759
H    2.32512798   0.08922639  -1.70854083
O    0.57943132   3.59720809  -1.32340349
H    0.65950978   3.66457689  -0.37194107
H    0.65059406   2.65998676  -1.50446674
O   -0.02995522  -0.10344307  -3.84929173
H    0.22033016   0.38893350  -3.06752810
H   -0.37136659  -0.93170486  -3.51216782
O    0.45094665  -0.67979223   3.25598249
H    0.92216512  -1.43348579   2.90083320
H    0.56775298   0.00722923   2.59978919
O   -1.97552172   3.13864088  -0.33473622
H   -1.23272823   3.34964224  -0.90039346
H   -1.93894825   2.18730444  -0.23547291
O    0.15735859   3.43004318   1.40855193
H   -0.71520481   3.38208968   1.01795570
H    0.47019112   2.52540649   1.40888485
O   -2.18388510  -0.55981858   2.38725489
H   -1.31484337  -0.58996052   2.78736711
H   -2.05325921  -0.08754480   1.56498595
O   -0.92226001  -2.30324414  -2.43458277
H   -1.78603917  -2.00883364  -2.14572319
H   -0.33043004  -2.03774610  -1.73067943
S    0.07044128   0.24354038  -0.15776914
O    0.59848936   0.89429016  -1.38975533
O    0.31257167  -1.22492941  -0.22896844
O    0.76379630   0.80392848   1.03610021
O   -1.39309221   0.50087232  -0.04845299
