41
Energy:  -1096.38644669
O    1.14027332  -2.75392626  -1.64081153
H    1.88627138  -2.43290615  -1.13419055
H    0.37280338  -2.42881239  -1.17014954
O   -3.07173916  -1.20017426  -1.76694610
H   -2.82906703  -0.36885523  -2.17468468
H   -2.30513038  -1.44641627  -1.24934809
O    3.16626856  -1.45356514  -0.27838770
H    3.39643487  -0.76467712  -0.90183667
H    2.43790447  -1.08877570   0.22425159
O   -1.50615947  -2.77333740   2.05084155
H   -1.40990825  -2.02690833   2.64228995
H   -1.28955373  -2.42404179   1.18637271
O    3.40260170   0.70437658  -1.98343283
H    2.66977974   0.32173907  -2.46591844
H    2.99217357   1.29859978  -1.35519769
O    1.99384781   2.23648337  -0.12073277
H    1.24893849   2.08478035  -0.70239258
H    2.03604131   1.45120729   0.42497139
O   -2.49371258   1.49365613  -2.22597251
H   -3.00210453   1.45725309  -1.41576001
H   -1.59200687   1.32740404  -1.95116548
O    1.35501795   0.66862592   3.31344728
H    1.35808442   0.19437007   2.48200044
H    0.94428412   1.50871190   3.10903320
O   -3.77530474   0.73407340   0.09287753
H   -2.94167636   0.77541041   0.56147845
H   -3.72898331  -0.08036468  -0.40789865
O    0.13670494   2.80752930   1.99319868
H    0.79145963   2.80562716   1.29496912
H   -0.49190583   2.13359523   1.73456143
O   -1.20221677  -0.40103343   3.53389848
H   -0.28097461  -0.17977831   3.67024694
H   -1.41661687  -0.02143257   2.68174378
O    1.21512338  -0.44400855  -3.12648527
H    0.66608285   0.07097108  -2.53523039
H    1.18755591  -1.33109870  -2.76795640
S   -0.28370819  -0.05551816   0.10487555
O    1.03949687  -0.20410102   0.77356942
O   -0.81138875  -1.40123291  -0.25665595
O   -1.23572008   0.61867321   1.03182721
O   -0.12722081   0.76458810  -1.12923849
