41
Energy:  -1095.13718190
O    2.52559557  -0.46055499   2.34020999
H    2.88764598   0.10648086   1.65931228
H    1.72527042  -0.81730847   1.95493288
O   -3.14697543   0.05015194   1.84837956
H   -2.68015586   0.15360024   1.01915717
H   -2.45585540  -0.07254664   2.49917139
O    3.13545197   0.13147728  -2.19350954
H    2.75570583   0.80993357  -2.75183005
H    2.38008761  -0.32559999  -1.82373000
O   -1.02428599  -3.44674281   0.59413185
H   -0.50182221  -2.68676709   0.85045264
H   -1.87499922  -3.08193959   0.35033386
O    3.16519830   1.31939540   0.29921747
H    3.29367104   0.89204759  -0.54760036
H    2.21983794   1.45782633   0.35720464
O    0.72536563   1.40497865  -3.19040853
H    0.56312701   2.13529626  -2.59329324
H    0.72031834   0.62999299  -2.62862246
O   -2.03559616   1.50346941  -2.58587976
H   -2.01565194   0.95151227  -1.80410141
H   -1.21208253   1.31311098  -3.03512448
O   -0.92138173  -0.35285735   3.41251926
H   -0.42398427   0.46380805   3.45593866
H   -0.58538902  -0.79740321   2.63423927
O   -0.25193723   3.23373413  -1.38569656
H   -1.05050320   2.81658236  -1.70897451
H    0.03959789   2.67063137  -0.66865095
O    0.89321771   1.67902867   3.00346043
H    0.62389128   1.73363211   2.08655608
H    1.53521622   0.96932313   3.02315302
O   -3.30090047  -2.02362099  -0.05024042
H   -3.54073807  -1.63713179   0.79198038
H   -2.68536968  -1.39920670  -0.43424626
O    0.32951805  -3.20675525  -1.82183351
H   -0.13196276  -3.41895628  -1.01051481
H    0.52033072  -2.27138560  -1.75179072
S   -0.05648804  -0.07565283  -0.07714048
O    0.44627916   1.26554214   0.33337285
O    0.67733997  -0.53085497  -1.29138405
O    0.16314962  -1.04856846   1.02978973
O   -1.51272093   0.01126997  -0.38034044
