41
Energy:  -1097.85634141
O    2.59799501  -2.77841661   1.59741703
H    2.04073812  -2.19272325   2.10992059
H    2.03110510  -3.09429706   0.89379269
O    1.93586261  -1.58392248  -2.31284243
H    1.10146596  -1.12354445  -2.22303067
H    2.48449157  -1.22456366  -1.61563418
O   -2.94375724   0.49287326  -2.23021851
H   -2.97709672   0.59227072  -1.27877725
H   -2.07791512   0.12299867  -2.40267734
O    0.62272439   2.20420158  -2.44664481
H    0.34952619   1.30174274  -2.28183386
H    0.84933638   2.54795475  -1.58251946
O    0.87331098   2.97269537   0.18534323
H   -0.06723830   3.14904889   0.20766653
H    0.94867564   2.04419358   0.40542604
O   -1.70186163   0.47211545   3.03450896
H   -1.84247828   0.57787237   2.09361880
H   -0.75258461   0.39209478   3.12779175
O   -1.86565728   3.20316935  -0.01483158
H   -1.87060734   2.26725081   0.18582692
H   -1.94231179   3.24465030  -0.96805519
O   -1.95890993   2.98121805  -2.74424876
H   -2.39084739   2.13545215  -2.62449100
H   -1.02378765   2.77736732  -2.72931369
O    1.05771691  -3.51104628  -0.55793476
H    1.42355897  -2.98639412  -1.27006646
H    0.32635701  -2.98968979  -0.22697863
O   -1.49704386  -2.25211187   2.76530074
H   -1.80155174  -1.36756554   2.96799406
H   -1.29312189  -2.22737846   1.83040185
O    0.94245299  -0.96484939   2.93711404
H    0.96517102  -0.48219337   2.11082177
H    0.17141526  -1.52749572   2.86526860
O    3.20525818  -0.66619948  -0.04119154
H    3.16423350  -1.43743614   0.52426654
H    2.39446384  -0.19133216   0.14141573
S   -0.48990567  -0.26826749  -0.11875792
O    0.73234552   0.26771120   0.54375915
O   -0.32569836  -0.19512269  -1.59787448
O   -0.69418824  -1.68682975   0.28873410
O   -1.67208161   0.54117129   0.29034955
