41
Energy:  -1095.01163433
O    3.62888985  -0.73530120  -0.02940302
H    3.31399329  -1.01503665   0.83014342
H    2.95368222  -0.13697455  -0.34929631
O   -2.64989317   1.61903648   1.82982131
H   -2.49592706   0.78525471   2.27404450
H   -2.17398501   1.54186385   1.00290677
O   -0.20128966   2.46643411   2.74239136
H    0.22594998   1.68378240   2.39431890
H   -1.13094219   2.33544649   2.55578949
O   -0.97648919  -1.64714461  -2.94876465
H   -0.15410824  -1.32163631  -3.31477800
H   -0.83098418  -1.65672207  -2.00273695
O    1.92797888   3.16873790  -1.15147507
H    1.84731381   2.21648152  -1.09731989
H    1.15783307   3.50142117  -0.69057474
O   -2.74886015  -1.87751454   0.30291389
H   -1.81270782  -1.86684075   0.10357312
H   -3.12922991  -1.23557952  -0.29664438
O    1.99217867  -2.75497853  -0.87944551
H    2.63430507  -2.07255357  -0.68399296
H    1.14414797  -2.33398380  -0.73859374
O    1.73686244  -0.94843954  -3.07252339
H    1.63456770  -0.26014290  -2.41524463
H    1.85806995  -1.75007822  -2.56368548
O   -2.97021739  -0.01179399  -1.82080669
H   -2.35170676   0.48509637  -1.28529158
H   -2.41861722  -0.56954043  -2.36933929
O   -1.82630014  -0.82675013   2.71424420
H   -0.96080375  -0.53151139   2.43143342
H   -2.20330410  -1.24242709   1.93880076
O    2.21021765  -1.87361021   2.02354698
H    1.91555953  -2.44770996   1.31656897
H    1.60597611  -1.13167856   1.99782857
O   -0.40275073   3.64113384   0.23876338
H   -0.68066726   2.80757235  -0.14093320
H   -0.19742350   3.43307321   1.15023656
S    0.15372544   0.09984816   0.00704545
O    0.46980896   0.13679892   1.46266417
O   -0.98347010   1.01950719  -0.27775900
O    1.34846842   0.53133557  -0.77174069
O   -0.21990550  -1.28824906  -0.38498269
