41
Energy:  -1097.78953334
O    1.99495270  -2.83887712   0.93089333
H    2.64185907  -2.13362660   0.95001666
H    1.24470931  -2.46391464   0.46962351
O   -3.45208466   0.41093555   0.36312348
H   -2.63514560   0.75626658   0.00313889
H   -3.20857598   0.06456150   1.22158745
O    3.38068451  -0.50317427   1.45220043
H    2.82370253  -0.02371703   0.83891121
H    2.83415619  -0.62394079   2.22870161
O   -2.59061062  -2.07634080  -0.40563319
H   -2.95472536  -1.20893825  -0.22881371
H   -1.64240643  -1.95050892  -0.36948066
O    1.90904757   0.79404085  -2.73483481
H    1.41793238   0.00658521  -2.96925179
H    1.90917860   0.80073706  -1.77765824
O    0.15705266   2.80953381   2.44732556
H   -0.04256400   1.88553550   2.29695214
H    0.60112996   3.09230654   1.64790904
O   -2.16959466  -0.45910318  -2.68027146
H   -1.76411575   0.16307979  -2.07636165
H   -2.42858765  -1.19624977  -2.12730727
O    1.40272895  -1.35181586   3.19408966
H    1.48455930  -2.04801692   2.54229236
H    0.77878904  -0.73575568   2.81016168
O   -0.00468543   2.77719058  -2.24241333
H    0.70884756   2.23517058  -2.57903899
H   -0.47906933   2.20306379  -1.64110625
O    1.50704336   3.31786214   0.02977785
H    1.67080068   2.37757560   0.10241817
H    0.93520313   3.40364698  -0.73302721
O   -2.46682977  -1.17885624   2.37339408
H   -1.65601529  -0.67690909   2.29056421
H   -2.43962365  -1.80048182   1.64601982
O    0.34209780  -1.49726406  -2.94679505
H   -0.52621531  -1.11668859  -3.07880448
H    0.40680048  -1.62495251  -2.00035907
S    0.06863299   0.06758412   0.19666253
O    1.42946514   0.61518066  -0.06482146
O    0.02364405  -1.36554319  -0.20858071
O   -0.24250087   0.18298499   1.64923900
O   -0.93607638   0.83771405  -0.58918669
