41
Energy:  -1095.84708665
O    3.79614021  -1.09797458   0.20523443
H    2.85342012  -1.26383533   0.20429510
H    3.93331304  -0.49679264   0.93735172
O   -2.89789602   0.18164383  -1.99980841
H   -2.90861923   0.86495652  -1.32958410
H   -2.26318070  -0.45909397  -1.67914756
O    2.63673789   1.00828094   1.76446928
H    2.80622940   1.40170502   0.90847747
H    2.09327401   0.24373254   1.57382668
O    0.39698036  -2.87579526   2.37579292
H   -0.42424538  -2.45601756   2.63193121
H    0.79933733  -2.26133923   1.76196517
O   -0.29115095  -1.57512997  -3.56236999
H   -0.44115047  -1.67279778  -2.62205462
H   -0.33364703  -0.63119824  -3.71540206
O   -2.68425843   2.06765762   0.03388384
H   -2.23958576   1.36061439   0.50141774
H   -1.99102557   2.69702466  -0.16500602
O   -0.70629160   1.15154656  -3.35821376
H   -0.16052294   1.11476495  -2.57271040
H   -1.57234655   0.87143839  -3.06203798
O   -2.13670637  -1.76773571   2.40709927
H   -2.15648373  -2.39155204   1.68136248
H   -1.80500045  -0.95818575   2.01872845
O    3.10210752   1.34516495  -0.93053910
H    3.40629667   0.45095035  -0.77535839
H    2.15493255   1.26085428  -1.04000658
O   -0.21935209   3.35521482  -0.08931694
H   -0.09766196   3.16692214   0.84125773
H    0.04122391   2.54835204  -0.53350659
O    0.22677117   2.25066857   2.42003431
H    1.12333462   1.93684047   2.30206078
H   -0.32033055   1.56082482   2.04449848
O   -1.43485576  -3.55281334   0.40650255
H   -0.68302574  -3.54002183   0.99880303
H   -1.28135304  -2.82171862  -0.19196990
S   -0.04642150  -0.28992704  -0.04811461
O   -0.79272106  -1.26412172  -0.89314816
O    1.11628315  -0.97182125   0.58689577
O    0.43985115   0.83373807  -0.89724101
O   -0.94909924   0.24249674   1.01103497
