41
Energy:  -1099.13481575
O    2.82499642  -1.40069665   1.40258358
H    3.38419043  -0.72170031   1.02509465
H    2.07529954  -1.45126315   0.80960004
O   -2.44743924  -1.65719380  -1.40567311
H   -1.88933651  -0.90345850  -1.59707922
H   -1.86011703  -2.29309828  -0.99712696
O    3.87698297   0.46833053  -0.41146579
H    3.04955948   0.94252524  -0.32935865
H    3.71111107  -0.18843129  -1.08776622
O   -2.97186955  -0.38808819   0.95142058
H   -2.11912674   0.03559951   1.04914607
H   -2.90642104  -0.87212097   0.12821914
O    2.68268009  -1.15659535  -2.34858128
H    2.06272676  -1.30051439  -1.63361482
H    2.32653957  -0.40864644  -2.82813129
O    0.77390686   3.93818270   0.18007211
H   -0.09567062   3.76761151   0.54197309
H    1.09335534   3.07801953  -0.09251520
O    1.37964639   1.12576108  -3.28771669
H    1.65987754   1.48348387  -2.44525794
H    0.48337844   0.82634416  -3.13512205
O    0.60707257  -0.79126330   3.01759284
H    0.20431231  -0.19817134   2.38335475
H    1.43896454  -1.04269848   2.61638474
O   -3.07916328   1.76608185  -0.87542243
H   -2.26415278   1.43203807  -1.25012829
H   -3.30418620   1.13643307  -0.19048524
O   -1.66143576   3.01906233   1.14592319
H   -2.21502994   2.82742590   0.38892861
H   -1.16000149   2.21583836   1.28601882
O   -1.64586110  -2.30298696   2.46236659
H   -0.84697861  -1.83668003   2.70848944
H   -2.18221949  -1.64403883   2.02152775
O   -0.70806594  -3.20286088   0.03944023
H   -1.02655159  -3.01021350   0.92130514
H   -0.07220137  -2.51091960  -0.14256348
S    0.23067365   0.34671839  -0.33768189
O    1.31484966   1.35433587  -0.50905688
O    0.81931854  -1.02206371  -0.34340477
O   -0.46604430   0.58232784   0.95814692
O   -0.74542932   0.47227356  -1.45641283
