31
Energy:   -191.23017638
C    0.00376243  -2.26219498  -2.69066284
H    0.92283531  -1.76149065  -2.46817599
H    0.18547871  -3.31144717  -2.79529614
H   -0.69317337  -2.09847656  -1.89544220
C   -0.57748556  -1.70832726  -4.00480946
N   -1.01025111  -1.29594758  -4.98325135
C   -0.72398760   3.32398788   1.13951156
H   -1.14555316   4.21121899   0.71524324
H   -1.35943296   2.48994201   0.92626107
H    0.24405629   3.15195107   0.71738190
C   -0.59594136   3.49504561   2.66461596
N   -0.50060511   3.62240586   3.80012550
C    1.43797384  -3.01896411   1.05445523
H    0.47213832  -2.56334514   1.12133796
H    2.15129248  -2.29526498   0.71929083
H    1.72700523  -3.38523453   2.01737056
C    1.38542013  -4.18914705   0.05470028
N    1.34629150  -5.06040145  -0.68966273
C    0.88974534   0.32287101   3.39155105
H    0.81349445   1.09238209   4.13110408
H   -0.06356025   0.17831102   2.92764378
H    1.60692508   0.60964605   2.65106986
C    1.33933513  -0.98933539   4.06056777
N    1.67407517  -1.96633270   4.55868113
C   -1.45406845   1.71243984  -2.85101430
H   -1.68206980   1.27061861  -3.79848967
H   -1.85409259   1.10300362  -2.06777279
H   -0.39262017   1.78677111  -2.73831336
C   -2.07787438   3.11848576  -2.77684531
N   -2.54232625   4.16535085  -2.72162312
Cl   0.47321275   0.25147816  -0.16955248
