31
Energy:   -191.68197687
C    0.10737648  -1.87643578  -2.96070756
H    1.03530802  -1.34482432  -2.92560072
H    0.29831403  -2.91703526  -3.12069088
H   -0.41279145  -1.74752057  -2.03458376
C   -0.75430720  -1.32941407  -4.11390681
N   -1.39586986  -0.92213155  -4.97251606
C   -0.81902778   3.15951376   1.47767058
H   -1.34526410   4.03110429   1.14857265
H   -1.34852571   2.28388109   1.16494312
H    0.16268542   3.15369325   1.05210696
C   -0.71249261   3.17370862   3.01391560
N   -0.63317233   3.18427733   4.15771985
C    1.44670902  -3.01878207   0.68657704
H    0.50786096  -2.54081313   0.87368716
H    2.14249160  -2.30110496   0.30483727
H    1.82460541  -3.43190214   1.59840225
C    1.25265295  -4.14503650  -0.34565025
N    1.10816939  -4.98358412  -1.11419039
C    0.91633350  -0.03130164   3.33435591
H    0.78281257   0.68758319   4.11555815
H    0.00224272  -0.13899222   2.78870045
H    1.68953554   0.30003024   2.67308675
C    1.31127901  -1.38783712   3.94707896
N    1.60533390  -2.39783944   4.40327913
C   -1.29592812   1.95239026  -2.66240027
H   -1.39269870   1.88026579  -3.72557179
H   -1.66552315   1.05642980  -2.20902023
H   -0.26530642   2.08288772  -2.40610276
C   -2.10803654   3.15789225  -2.15363228
N   -2.71268817   4.05544328  -1.77483138
Cl   0.66792160   0.35545403  -0.22108670
