31
Energy:   -191.36478053
C    0.20944893  -1.65079541  -3.13117580
H    1.15101197  -1.15765540  -3.00800051
H    0.37481268  -2.67575587  -3.39003866
H   -0.34287798  -1.59864280  -2.21623636
C   -0.58876171  -0.96043107  -4.25271796
N   -1.18306582  -0.44642343  -5.08775709
C   -0.52260724   3.03441221   1.78566457
H   -0.86829582   3.99233654   1.45736507
H   -1.11547415   2.26705529   1.33336901
H    0.50124126   2.90814170   1.50160630
C   -0.64536564   2.94187258   3.31797224
N   -0.73676485   2.87297261   4.45884495
C    1.11794836  -3.17374899   0.50051291
H    0.22133059  -2.62501316   0.70017700
H    1.89083950  -2.49725367   0.20069219
H    1.42229435  -3.69368831   1.38478420
C    0.85799103  -4.18884381  -0.62802806
N    0.66444098  -4.94462803  -1.46827810
C    0.74748770  -0.37580707   3.32581353
H    0.62542193   0.27812730   4.16388869
H   -0.12664557  -0.33358121   2.71017801
H    1.60007049  -0.07013047   2.75610879
C    0.95418812  -1.81770576   3.82561658
N    1.10808598  -2.89126488   4.19774267
C   -1.16062972   2.26682254  -2.49925785
H   -1.43418540   2.02670097  -3.50544327
H   -1.56696900   1.53343684  -1.83447751
H   -0.09423231   2.27547717  -2.41196091
C   -1.71690532   3.65549156  -2.13353142
N   -2.13107779   4.68941876  -1.86123147
Cl   0.78724447   0.35910328  -0.19220174
