31
Energy:   -191.27871825
C   -0.89215922  -2.05958510  -2.61299788
H   -1.34010519  -1.74685728  -1.69297294
H    0.08921642  -1.64066001  -2.69238748
H   -0.82683168  -3.12740058  -2.63303573
C   -1.75392355  -1.57576146  -3.79404696
N   -2.39554627  -1.21553276  -4.67339168
C    0.19182965   3.33269514   1.14164926
H   -0.11233712   4.27314556   0.73184958
H   -0.56222855   2.59865426   0.94805351
H    1.11176881   3.02704448   0.68867165
C    0.39085819   3.47552843   2.66203943
N    0.53904398   3.58187431   3.79403903
C    0.67357843  -3.22036759   1.03093965
H   -0.00104604  -2.42825155   1.28060779
H    1.50471090  -2.82280415   0.48682456
H    1.02450150  -3.68606089   1.92809172
C   -0.05674428  -4.26236831   0.16349326
N   -0.60050273  -5.03818521  -0.48236000
C    1.54886996   0.09437035   3.17890866
H    1.81238002   0.88329693   3.85200411
H    0.56791846   0.27048950   2.78953057
H    2.25216852   0.06320625   2.37311774
C    1.56922514  -1.24972348   3.93030566
N    1.58438050  -2.25046242   4.48975489
C   -1.07378085   1.92683523  -2.85076125
H   -1.35763715   1.67679799  -3.85166443
H   -1.63350013   1.32966773  -2.16155563
H   -0.02875061   1.73866872  -2.71883605
C   -1.36372548   3.41699852  -2.59202301
N   -1.57960243   4.52649283  -2.39938063
Cl   0.71797080   0.10825458  -0.31446740
