31
Energy:   -191.51584726
C    0.06318905  -0.62962038  -3.47125949
H    0.79501316   0.06794580  -3.12092387
H   -0.65615613  -0.80947059  -2.69983515
H   -0.42958463  -0.22758144  -4.33174650
C    0.75445564  -1.95338229  -3.84729793
N    1.26913505  -2.93898320  -4.12727564
C   -1.05905278   2.43920057   2.38925131
H   -1.42042422   1.46618982   2.12932643
H   -1.00089922   2.52534010   3.45419133
H   -0.08689846   2.58339473   1.96614007
C   -2.02182288   3.50810225   1.83959422
N   -2.73864899   4.30394813   1.43034953
C    1.90252157  -2.97472778  -0.52343273
H    2.41875993  -2.03907657  -0.57779218
H    0.84681730  -2.80086580  -0.53606600
H    2.17417247  -3.58121192  -1.36205175
C    2.28797566  -3.69871486   0.77997352
N    2.57496375  -4.23775615   1.75041872
C    1.11543345  -1.17168765   3.23973982
H    1.66983187  -0.45379467   2.67213762
H    0.30004028  -1.53838149   2.65188889
H    1.75595495  -1.98565538   3.50823160
C    0.56919766  -0.50564563   4.51630337
N    0.16250029  -0.00974707   5.46676295
C   -1.89516689   2.48051036  -1.67476776
H   -0.86831466   2.65365094  -1.42880633
H   -2.24488249   1.61276437  -1.15552312
H   -2.47924562   3.32897820  -1.38519313
C   -2.02910094   2.25906309  -3.19286616
N   -2.12882093   2.09418553  -4.32315943
Cl   0.39905677   0.23302899  -0.03631220
