31
Energy:   -191.65965226
C   -0.36780625  -2.35637599  -2.59617270
H    0.57343110  -1.84949010  -2.64132940
H   -0.20476873  -3.41371112  -2.61515386
H   -0.87351394  -2.08965228  -1.69172962
C   -1.22929707  -1.94802261  -3.80558623
N   -1.87071615  -1.64398495  -4.70604957
C   -0.26026940   3.47346109   0.99248546
H   -0.70788279   4.34334456   0.55907437
H   -0.93608110   2.64766081   0.91354539
H    0.64670470   3.24295025   0.47367736
C    0.05125881   3.74177801   2.47658660
N    0.28320572   3.94155215   3.58156737
C    1.00607304  -3.07202218   1.14783663
H    0.11656629  -2.49831409   1.30447933
H    1.73714670  -2.46831981   0.65187913
H    1.39212216  -3.39635628   2.09159114
C    0.67847554  -4.29981665   0.27789374
N    0.43456431  -5.21396544  -0.36981828
C    1.22462538   0.38171944   3.25766323
H    1.37675468   1.22251248   3.90173149
H    0.21796709   0.38774677   2.89503139
H    1.90180784   0.43841752   2.43115955
C    1.47987227  -0.91867405   4.04215403
N    1.66991517  -1.88687610   4.62624309
C   -1.34676183   1.67014191  -2.91281065
H   -1.64204057   1.38917022  -3.90213646
H   -1.84789409   1.04815556  -2.20084258
H   -0.28860411   1.55019756  -2.80881697
C   -1.72348212   3.14235930  -2.66329555
N   -2.00396750   4.23849206  -2.47752021
Cl   0.51259486   0.19592196  -0.23333724
