31
Energy:   -191.48655303
C   -1.27160125   2.41406244   2.30905726
H   -1.83451031   1.50652208   2.24269406
H   -0.57295913   2.46040413   1.49995236
H   -1.93627270   3.25081768   2.25472836
C   -0.51032404   2.44924277   3.64727224
N    0.05648146   2.47543613   4.64363412
C    1.38274048  -0.64105385   3.18950580
H    1.31886073  -0.23001521   4.17533885
H    0.47211481  -1.15231875   2.95655048
H    1.53955451   0.14769422   2.48368363
C    2.55960694  -1.63201231   3.12178086
N    3.43583751  -2.36982593   3.07135656
C   -0.15631531  -1.30289551  -3.33292021
H    0.52547322  -1.94672310  -3.84823623
H   -0.71442785  -1.87229852  -2.61934492
H    0.39117325  -0.53529283  -2.82701360
C   -1.12229229  -0.66152326  -4.34639449
N   -1.84150606  -0.18399247  -5.10097217
C    2.34790911  -2.51561276  -0.43521003
H    2.45723997  -1.45131828  -0.42023694
H    3.03069834  -2.95414415   0.26220532
H    1.34577541  -2.77505624  -0.16444033
C    2.65017224  -3.04284012  -1.85022534
N    2.87522088  -3.43538486  -2.90376855
C   -2.51422185   1.95898964  -1.63046043
H   -1.44664603   1.95139333  -1.70204507
H   -2.93731417   1.99337290  -2.61265683
H   -2.84449544   1.07240355  -1.13067693
C   -2.96645002   3.19645989  -0.83311667
N   -3.30315445   4.11781274  -0.23945800
Cl  -0.41636798  -0.29230334   0.13941683
