31
Energy:   -191.11349709
C   -0.10698621  -2.32136149  -2.69873552
H    0.68399233  -1.75517006  -2.25299972
H    0.15612588  -3.35849155  -2.70442499
H   -1.00558547  -2.18445587  -2.13422219
C   -0.33077792  -1.84060282  -4.14455306
N   -0.49740103  -1.48265614  -5.22102994
C   -0.73130582   3.39932403   0.98970810
H   -1.07579402   4.26779176   0.46817971
H   -1.51738875   2.67475544   1.03412755
H    0.10860486   2.98317647   0.47369419
C   -0.31297129   3.79115892   2.41906517
N   -0.00150222   4.08289782   3.48328648
C    1.11479011  -3.05147631   1.30043101
H    0.12157201  -2.73876281   1.54665910
H    1.65867477  -2.22445842   0.89406913
H    1.60712390  -3.40306744   2.18297858
C    1.05290162  -4.18581112   0.26069338
N    1.00682282  -5.03037495  -0.51343855
C    0.91562137   0.45593558   3.44764794
H    1.11658175   1.30177129   4.07140836
H   -0.13160624   0.41223945   3.23246415
H    1.46400897   0.54856017   2.53354137
C    1.34434615  -0.83185824   4.17523446
N    1.66355122  -1.79067928   4.71695570
C   -1.21134066   1.54371545  -2.99653933
H   -1.18394901   1.29170621  -4.03607827
H   -1.95297037   0.94943454  -2.50489448
H   -0.25393046   1.35377573  -2.55814715
C   -1.56132737   3.03511452  -2.83893813
N   -1.82190838   4.14552891  -2.72159688
Cl  -0.31797254  -0.03765979   0.09545382
