31
Energy:   -190.98151349
C    0.19010101  -1.85895421  -2.90764708
H    0.90285974  -1.07148882  -2.77813481
H    0.70058715  -2.76317440  -3.16588888
H   -0.35171565  -2.00306355  -1.99629298
C   -0.79064797  -1.48350419  -4.03404342
N   -1.52086016  -1.20396458  -4.87269670
C   -1.59904402   2.92506811   1.47272189
H   -1.91444420   1.98230459   1.07696962
H   -0.64026641   3.17792068   1.07058985
H   -2.30856857   3.67978455   1.20462283
C   -1.50384143   2.83179650   3.00694380
N   -1.43295877   2.76235155   4.14924175
C    2.32539827  -2.56524508   0.47391165
H    1.30419200  -2.54878078   0.79292085
H    2.61128736  -1.58889361   0.14239345
H    2.94956580  -2.86145873   1.29096211
C    2.48537095  -3.56783319  -0.68402868
N    2.60447789  -4.31430562  -1.54616789
C    1.46517119   0.22269803   3.29960010
H    1.25383980   0.86616998   4.12796178
H    0.56144103  -0.24932337   2.97499773
H    1.87529115   0.79840010   2.49631445
C    2.47976191  -0.85264515   3.73069488
N    3.23517082  -1.65328703   4.05166455
C   -2.25970325   1.40848283  -2.34776903
H   -2.62679063   1.02921678  -3.27852373
H   -2.37813092   0.66453573  -1.58788964
H   -1.22325470   1.65510907  -2.44701108
C   -3.05263708   2.67011494  -1.95900127
N   -3.64301236   3.60945739  -1.66954601
Cl   0.30136003   0.30251149  -0.08787009
