31
Energy:   -191.00847052
C    0.68306243  -2.11160140  -2.76544079
H    0.94942725  -3.13986733  -2.89435603
H   -0.14973916  -2.03993552  -2.09745530
H    1.51473224  -1.57618538  -2.35733038
C    0.30132446  -1.50541017  -4.12867529
N    0.01710319  -1.05407325  -5.14366535
C   -1.23458844   3.12318120   0.90199266
H   -1.81664981   3.85638453   0.38380579
H   -1.63559192   2.14964461   0.71140987
H   -0.22165147   3.16494920   0.55977458
C   -1.27758205   3.40896727   2.41463203
N   -1.30959274   3.62174799   3.54086080
C    1.23477553  -3.13468915   1.13450802
H    0.28247830  -2.67816023   0.96242804
H    2.00637095  -2.40094588   1.02886517
H    1.26196903  -3.54093637   2.12401436
C    1.45571312  -4.26310103   0.11007002
N    1.62021120  -5.10325497  -0.65267063
C    0.23913381   0.30610615   3.61083397
H    1.08363454   0.51546716   2.98802849
H    0.07926102   1.12411856   4.28180005
H   -0.62921973   0.17044368   3.00054149
C    0.50356179  -0.97729329   4.41988508
N    0.70044044  -1.93284251   5.02226042
C   -0.85710250   1.81342184  -2.91014450
H   -1.28896305   1.17007560  -2.17224053
H    0.20594229   1.83123001  -2.78965486
H   -1.09931986   1.44918718  -3.88664998
C   -1.41692502   3.23795723  -2.74015139
N   -1.83373833   4.29858859  -2.61358379
Cl   0.63152249   0.21682570  -0.04369202
