31
Energy:   -191.16751624
C    0.36653333  -1.76429057  -3.09661956
H    1.06313014  -1.01457232  -2.78424860
H    0.89918227  -2.63844814  -3.40812036
H   -0.28008010  -2.01236251  -2.28099067
C   -0.47202316  -1.22815188  -4.27176989
N   -1.09636658  -0.82897225  -5.14672274
C   -0.88466178   3.14152384   1.34607566
H   -1.34894370   3.99379478   0.89554628
H   -1.52902819   2.29258452   1.25124391
H    0.04463973   2.94052849   0.85526138
C   -0.62653595   3.42601235   2.83739633
N   -0.43434954   3.63782697   3.94775236
C    1.43447724  -3.24209412   0.72900340
H    0.44339201  -2.88963692   0.92502424
H    2.07950424  -2.40853262   0.54457325
H    1.79236622  -3.78949896   1.57585788
C    1.41744976  -4.16122233  -0.50651811
N    1.40477203  -4.84555506  -1.42642003
C    0.96190682   0.06463126   3.47848387
H    0.83340449   0.78666795   4.25761824
H    0.00821673  -0.18429657   3.06205954
H    1.58938432   0.47279051   2.71390745
C    1.61635757  -1.20373828   4.05687209
N    2.10362589  -2.14809705   4.48750841
C   -1.68655086   1.81762457  -2.47957128
H   -1.84372724   1.64128749  -3.52317130
H   -2.05892582   0.98682962  -1.91741851
H   -0.63980604   1.93514875  -2.29138932
C   -2.43092415   3.09799713  -2.05748775
N   -2.98514391   4.05129269  -1.74322738
Cl   0.25872423   0.07292863  -0.03050880
