31
Energy:   -190.96018239
C   -0.49922695   0.13682372  -3.51957939
H   -1.00887234   0.83906070  -4.14569837
H    0.27992576   0.63701403  -2.98326809
H   -1.19228037  -0.29077054  -2.82550504
C    0.11036391  -0.97835861  -4.38927321
N    0.56423202  -1.80866255  -5.03679979
C   -0.38281506   1.71497343   3.16793976
H   -0.92531298   0.80427626   3.02224530
H    0.14609804   1.67032704   4.09700204
H    0.31404482   1.84708257   2.36679522
C   -1.36622214   2.89981768   3.19352499
N   -2.09841341   3.78198809   3.21257435
C    1.50929711  -2.73796366  -1.49297743
H    2.00699515  -1.81626394  -1.27465092
H    0.45696989  -2.62020369  -1.33922735
H    1.69272421  -3.00980771  -2.51148340
C    2.04355160  -3.84275835  -0.56260071
N    2.44132835  -4.66532821   0.13010705
C    1.56384822  -1.90524119   2.49786215
H    2.10881256  -2.82560207   2.46870900
H    2.04519742  -1.18564975   1.86906155
H    0.56531025  -2.07084783   2.15088167
C    1.52387209  -1.37793257   3.94421879
N    1.49410804  -0.98532734   5.02109705
C   -2.11552335   2.91294262  -0.66760024
H   -2.47518708   1.97877543  -0.28961367
H   -2.59528300   3.71622496  -0.14849788
H   -1.05757612   2.97404762  -0.51957014
C   -2.43003493   3.01337362  -2.17179308
N   -2.66420309   3.08814907  -3.29173301
Cl  -0.05572863   0.10584115   0.02785281
