31
Energy:   -191.49366484
C    0.14370393  -1.88889281  -2.98208145
H    0.97143825  -1.30889793  -2.63085216
H    0.47737327  -2.87616419  -3.22469039
H   -0.60376707  -1.94264198  -2.21834247
C   -0.45205076  -1.22535932  -4.23762900
N   -0.89561720  -0.73132847  -5.17244123
C   -0.61878465   3.25925014   1.47487417
H   -0.97376938   4.20210377   1.11443962
H   -1.35708426   2.50664794   1.29211008
H    0.28688147   3.00125442   0.96683267
C   -0.34875421   3.35675146   2.98787683
N   -0.14770427   3.42934563   4.11437609
C    1.04812030  -3.22961725   0.75977458
H    1.71752783  -2.39671949   0.70432123
H    1.20860430  -3.75569298   1.67759172
H    0.03806462  -2.87855477   0.72180423
C    1.30742248  -4.17648083  -0.42673785
N    1.50048474  -4.88146381  -1.31015028
C    0.77339256  -0.10868249   3.47599521
H    0.77038253   0.58742150   4.28860234
H   -0.20478693  -0.15822648   3.04517114
H    1.47413160   0.21243392   2.73387114
C    1.17703230  -1.50141562   3.99461779
N    1.47756043  -2.53836874   4.38075588
C   -1.34759872   1.99188108  -2.69197422
H   -1.55868718   1.78197969  -3.71973064
H   -1.91504617   1.33214314  -2.06936011
H   -0.30376296   1.84830679  -2.50571521
C   -1.72943286   3.45015386  -2.37694535
N   -2.01372574   4.53590422  -2.14239203
Cl   0.09845173   0.10292959  -0.02397234
