43
Energy:   -268.41952537
C   -0.60019655   2.50479175  -2.97579434
H    0.11602785   1.75562301  -2.70995792
H   -0.81911238   3.10858862  -2.11998811
H   -0.20001731   3.12068210  -3.75389121
C   -1.89191040   1.82759565  -3.47024430
N   -2.85365008   1.32339237  -3.83838478
C   -0.39886502  -1.33463979  -2.42930541
H   -0.74040244  -0.56215660  -1.77240200
H   -1.22316394  -1.95867760  -2.70499944
H    0.02463815  -0.89439188  -3.30778474
C    0.66954173  -2.18191957  -1.71360715
N    1.46501912  -2.81275787  -1.18073726
C   -3.40491223   0.33765954  -0.14696867
H   -2.69192569   0.46148175   0.64120544
H   -4.37132407   0.64441646   0.19486085
H   -3.11676951   0.93612581  -0.98584351
C   -3.45487943  -1.14339923  -0.56597726
N   -3.49208228  -2.24611481  -0.87794820
C   -1.01290910   1.36466951   3.68381468
H   -0.83750776   1.62165133   4.70757974
H   -1.04562033   2.25608908   3.09288304
H   -0.22271109   0.73368105   3.33404366
C   -2.35557298   0.61998033   3.56426673
N   -3.35524728   0.06552539   3.47525785
C    3.18144198   0.67842617  -1.62288172
H    2.82259518  -0.18617468  -1.10462067
H    2.78072715   1.55951921  -1.16680960
H    4.24996145   0.70580465  -1.57373254
C    2.73677284   0.61528512  -3.09593385
N    2.40569646   0.56827373  -4.19268811
C    2.92247590  -0.39348128   2.03943562
H    2.43036433  -0.89780661   1.23421370
H    2.42403261   0.53222840   2.23821935
H    2.89558999  -1.00819547   2.91482280
C    4.38683266  -0.11523032   1.65234946
N    5.47711283   0.09194016   1.36414622
C   -0.74569228  -2.16355758   1.67559921
H   -0.62050521  -3.11028043   1.19295625
H   -0.30892589  -1.39520997   1.07246063
H   -1.78896780  -1.96486421   1.80596882
C   -0.05294711  -2.19280057   3.05068065
N    0.46283317  -2.21457330   4.07449129
Cl   0.15415475   1.34280058   0.30124481
