43
Energy:   -268.28800057
C   -2.63933264  -0.06992544  -2.16429850
H   -1.93691192   0.38120158  -2.83361883
H   -3.48434474  -0.42204774  -2.71825113
H   -2.17501913  -0.89212582  -1.66101070
C   -3.10237283   0.97093752  -1.12805621
N   -3.44712729   1.74590731  -0.35652673
C    0.61494519   2.50359571  -2.91579059
H    1.21893539   1.65960028  -3.17611297
H    0.01869811   2.26509421  -2.05992521
H    1.24596974   3.33760867  -2.68967228
C   -0.30440439   2.86122749  -4.09837076
N   -0.98890194   3.12750061  -4.97885545
C    1.90082156  -1.82216032   2.21034796
H    1.25477484  -0.97136756   2.14972208
H    1.47909336  -2.54332096   2.87890742
H    2.00972310  -2.25725363   1.23888856
C    3.28088489  -1.38252377   2.73355432
N    4.30840478  -1.05519437   3.12310523
C   -0.37210328   2.54656077   0.92162158
H   -1.33142313   3.01385848   1.00060551
H   -0.40253186   1.79624535   0.15938804
H    0.36309579   3.28184638   0.66916070
C   -0.00574183   1.89563194   2.26834759
N    0.26703092   1.41098583   3.27104631
C   -0.62984718  -3.90999215  -0.72314310
H   -0.46187410  -4.96537166  -0.66967062
H   -0.19103843  -3.43534130   0.12953067
H   -0.18434970  -3.52269521  -1.61557358
C   -2.14434548  -3.63159455  -0.74288358
N   -3.27195830  -3.42431489  -0.75758126
C    3.39725841   1.30500875   0.41071128
H    3.51578951   0.67834723  -0.44844290
H    2.55708845   0.97075286   0.98280089
H    4.28067498   1.25612093   1.01244564
C    3.16441904   2.75837601  -0.04217881
N    2.99105955   3.84047400  -0.37937606
C   -2.06797736  -0.99999917   1.76938615
H   -2.17766797  -0.23022081   2.50444358
H   -3.00037716  -1.14763498   1.26566662
H   -1.32092976  -0.71163588   1.05969215
C   -1.64333552  -2.31044928   2.45786260
N   -1.32717036  -3.28613896   2.97046460
Cl   0.74241867  -0.61557344  -1.02836022
