43
Energy:   -268.82478491
C   -2.21398695   1.70957546  -0.48700567
H   -1.42995755   1.17163880   0.00373074
H   -3.15963742   1.29020034  -0.21356686
H   -2.18069450   2.73734815  -0.19124565
C   -2.02928933   1.60816423  -2.01252282
N   -1.89177356   1.53265897  -3.14833967
C   -0.69598091  -1.64927307  -2.08819580
H   -0.52695008  -0.96827646  -2.89601532
H   -0.46429014  -1.16761645  -1.16125169
H   -1.72217159  -1.95230235  -2.08594980
C    0.20422860  -2.88649116  -2.26287903
N    0.87447550  -3.80765626  -2.39293864
C   -2.07813236  -0.88787458   2.77596614
H   -2.02747109  -1.72674987   3.43825147
H   -2.71303169  -0.13750135   3.19874498
H   -1.09673808  -0.48596056   2.63373578
C   -2.64974144  -1.33895430   1.41898782
N   -3.07533039  -1.67480365   0.40865579
C   -0.06596798   3.05742087   2.52817634
H    0.22153588   4.03517469   2.85411984
H    0.10070518   2.96920534   1.47492557
H    0.51717530   2.32359276   3.04425706
C   -1.55893644   2.83331419   2.83218518
N   -2.67051932   2.66645659   3.05853359
C    1.63688428   2.43634588  -1.77855903
H    2.37359559   2.19639397  -1.04060259
H    2.12261485   2.70327480  -2.69382612
H    1.00733931   1.58699326  -1.94339940
C    0.78355441   3.61995410  -1.28611644
N    0.14821153   4.50120422  -0.91947054
C    3.33798868  -1.10042840  -1.66715852
H    2.28332794  -0.92011899  -1.65824612
H    3.73764066  -0.92765838  -0.68974975
H    3.52410034  -2.11417695  -1.95451791
C    4.01285116  -0.14955706  -2.67314277
N    4.51531695   0.55840988  -3.42214378
C    0.56678907  -3.42302067   1.28659071
H   -0.02926697  -2.72522357   0.73641203
H    0.88870895  -4.20851402   0.63523300
H    1.42150666  -2.92158854   1.69022764
C   -0.26881565  -4.01849208   2.43497154
N   -0.89096136  -4.46184762   3.28999327
Cl   1.16109398   0.11675986   0.92314540
