43
Energy:   -270.33036103
C   -1.88933171   2.91928190  -1.74378558
H   -1.95128249   2.08988320  -1.07061394
H   -2.75259244   3.54024029  -1.62508142
H   -1.00871461   3.48789324  -1.52909103
C   -1.82514899   2.40090395  -3.19249704
N   -1.77736204   2.01494800  -4.27112856
C    3.37119845  -1.13044275  -0.37924994
H    2.96052917  -0.17481542  -0.12819750
H    4.20141463  -0.99908042  -1.04135576
H    3.70022593  -1.62256121   0.51207459
C    2.29380900  -1.98661409  -1.07048261
N    1.49164359  -2.62407258  -1.58513675
C    0.09467528  -2.33728986   1.71144807
H    0.12735528  -1.40607684   1.18544949
H   -0.66847504  -2.29729528   2.46038139
H   -0.12158291  -3.12797912   1.02374029
C    1.45725904  -2.59710181   2.38037500
N    2.47176459  -2.79054361   2.87842150
C   -2.58288063   0.57734561   1.92754993
H   -3.05486934   0.19866789   2.81000675
H   -2.00180236   1.44068014   2.17634828
H   -1.94454899  -0.17505269   1.51363133
C   -3.65861038   0.96269389   0.89511968
N   -4.45954006   1.24960320   0.12642843
C   -1.63009088  -1.03390805  -1.81637251
H   -1.02391736  -0.33784509  -1.27512376
H   -2.34912611  -0.50041836  -2.40227027
H   -1.00987609  -1.62115004  -2.46087196
C   -2.36030135  -1.95835688  -0.82451212
N   -2.90397624  -2.64665105  -0.08602698
C    1.43441410   0.85261027   3.79659487
H    1.86608118   0.26666266   3.01222945
H    2.15181356   0.98449315   4.57943842
H    1.14741681   1.80858615   3.41105399
C    0.19367663   0.13023215   4.35367687
N   -0.73010882  -0.40761120   4.76844974
C    1.53872401   1.06267617  -3.10906374
H    1.04065148   0.28696434  -2.56583718
H    0.99141267   1.28054232  -4.00230712
H    1.59639514   1.94232482  -2.50260568
C    2.96029453   0.59951962  -3.47814810
N    4.01871840   0.25467852  -3.75294818
Cl   0.59466541   1.42343485   0.39028967
