43
Energy:   -266.47916501
C   -1.59879899   3.41977261   0.01127407
H   -0.59553965   3.59563362  -0.31651212
H   -2.28268225   3.73190170  -0.75015762
H   -1.73291604   2.37605500   0.20509163
C   -1.86543398   4.21960624   1.29998348
N   -2.06395585   4.81511873   2.25948622
C   -2.60040028  -0.39526064  -0.61275949
H   -1.70342743  -0.07182780  -0.12723803
H   -3.22309722  -0.90591481   0.09178287
H   -3.12264118   0.45453388  -1.00007436
C   -2.24351544  -1.34887243  -1.76811994
N   -1.97779845  -2.05887974  -2.62833831
C    1.51098274  -2.19982127  -2.18056474
H    1.40425917  -1.15072626  -2.36197565
H    1.34268219  -2.40134820  -1.14327939
H    0.79732082  -2.73791717  -2.76881517
C    2.93395408  -2.64523067  -2.56574397
N    3.99342092  -2.97685822  -2.85252741
C   -0.20836068  -2.22908897   1.72726937
H    0.03706839  -3.23213639   1.44698268
H    0.14610060  -1.55249726   0.97794971
H   -1.27011922  -2.13429587   1.81990938
C    0.45638543  -1.89566739   3.07580289
N    0.95131913  -1.64741987   4.07984739
C   -0.29647954   1.69970083   3.27725169
H    0.29239864   1.12603947   3.96211321
H   -0.54141039   2.64239295   3.72024101
H    0.25976744   1.86208932   2.37774162
C   -1.59208872   0.93485301   2.94861107
N   -2.55672865   0.36538904   2.70392319
C   -0.32879775   1.36366746  -3.54918479
H    0.36901550   2.00761442  -3.05594128
H   -0.10612315   1.33096899  -4.59524690
H   -0.25689871   0.37834343  -3.13825151
C   -1.75709559   1.90205758  -3.34497564
N   -2.82052825   2.30291350  -3.19293264
C    3.68751848  -1.14098918   1.03343078
H    3.64794316  -0.76782739   0.03139073
H    4.68802331  -1.06156689   1.40435028
H    3.03061260  -0.56773316   1.65371401
C    3.24995094  -2.61743470   1.04902843
N    2.92416202  -3.71671549   1.06064159
Cl   1.02195184   0.92737799  -0.26517835
