43
Energy:   -270.24302712
C    0.87299531   3.50557602  -0.40073820
H    1.29949010   4.21321118  -1.08063147
H    0.53680381   2.64711561  -0.94380367
H    1.61127509   3.20852589   0.31452628
C   -0.31954705   4.15018290   0.32996330
N   -1.20744905   4.63012203   0.87400378
C   -0.51308588  -2.12205977  -1.80816541
H   -0.19156484  -1.33101266  -1.16336399
H   -1.54452288  -1.98286460  -2.05648276
H    0.07350107  -2.11351280  -2.70300717
C   -0.33558398  -3.47321693  -1.09090157
N   -0.20342575  -4.47921485  -0.55686604
C   -2.44814737   1.14658210  -0.10869455
H   -1.72233076   0.62550111   0.48000320
H   -3.38282293   0.62766595  -0.06389810
H   -2.57207508   2.13824596   0.27359304
C   -1.96918247   1.21614600  -1.57066360
N   -1.61257134   1.26793949  -2.65916601
C   -0.86028604   1.91576920   3.37853347
H   -0.92050892   2.83431013   3.92402035
H   -0.83363244   2.12500228   2.32952909
H    0.02874537   1.39124438   3.66030636
C   -2.09151420   1.04753975   3.69768052
N   -3.00821954   0.40110347   3.93530001
C    2.09940220   0.56519322  -2.56218035
H    2.66384408   0.32436041  -1.68565020
H    2.26088132  -0.18514004  -3.30771613
H    1.05880540   0.60562625  -2.31637035
C    2.55230094   1.93354053  -3.10449795
N    2.88950464   2.95233730  -3.50827805
C    3.06965987  -2.70599000   0.13286200
H    3.65892971  -3.50468147   0.53255334
H    2.06499725  -2.79001608   0.49131943
H    3.48189401  -1.76866249   0.44331207
C    3.07420596  -2.78458766  -1.40512426
N    3.07759073  -2.84310719  -2.55022494
C   -1.58644499  -2.28407352   2.17962001
H   -2.03434580  -2.40580646   3.14370826
H   -1.01756307  -1.37799493   2.16247236
H   -0.94160907  -3.11393104   1.97856725
C   -2.68865102  -2.21857032   1.10609721
N   -3.50929351  -2.16980021   0.30681069
Cl   1.13955113   0.18140187   0.97164276
