43
Energy:   -268.68108982
C   -0.12506949   2.98907661  -1.92060511
H    0.45741266   3.04158011  -2.81662862
H    0.46539138   2.56457198  -1.13571603
H   -0.43703937   3.97331821  -1.63981630
C   -1.36422938   2.10790645  -2.16478105
N   -2.28684025   1.45183520  -2.34658114
C    0.22321739  -1.11376013  -2.66356715
H   -0.32326423  -0.55206230  -3.39209551
H    1.19779023  -1.33834219  -3.04392196
H    0.31451320  -0.53943044  -1.76539703
C   -0.52431301  -2.42556261  -2.36029736
N   -1.08088337  -3.40225918  -2.13449921
C   -2.32367779  -1.09456347   0.34130944
H   -2.88332837  -1.73381586  -0.30911181
H   -1.50239348  -1.63984724   0.75731037
H   -1.95220537  -0.25837810  -0.21339893
C   -3.23487899  -0.59319785   1.47706684
N   -3.91330970  -0.21990835   2.32268986
C   -1.85695942   2.75143915   1.63093871
H   -0.93031600   2.71555555   2.16474066
H   -1.86612340   1.98864325   0.88063374
H   -2.66705191   2.59201283   2.31155057
C   -2.01151663   4.13039774   0.96296771
N   -2.12659149   5.15709510   0.46563294
C    3.52052329   0.64773125  -1.51140122
H    3.39018301   1.40454772  -0.76632376
H    4.56008043   0.41066407  -1.60095112
H    2.97780569  -0.22959444  -1.22740063
C    2.99303738   1.16237489  -2.86362181
N    2.60030014   1.54555048  -3.87041151
C    1.62099516  -2.96765638   0.73709420
H    1.56013574  -3.94381253   1.17104753
H    0.63845322  -2.62808234   0.48371722
H    2.06177919  -2.29178702   1.43980976
C    2.48831520  -3.02420076  -0.53418809
N    3.13407439  -3.06630062  -1.48071555
C   -0.32675523  -0.83130516   3.98437655
H   -0.79164016  -0.57228477   4.91264948
H   -0.92360094  -0.46943387   3.17337503
H    0.64601152  -0.38818213   3.93677477
C   -0.19871350  -2.36269367   3.88410418
N   -0.10338062  -3.50288202   3.80944685
Cl   0.90406287   0.55504282   0.91419449
