43
Energy:   -267.08560289
C   -1.01508905   0.50751430  -3.26578279
H   -0.54024353   1.13820532  -2.54352886
H   -1.71651886  -0.13323295  -2.77350413
H   -1.52764787   1.11177208  -3.98484822
C    0.04872636  -0.34769327  -3.97888641
N    0.84078530  -0.98443418  -4.50982447
C   -3.55222897   1.33449130  -0.32915641
H   -4.05491874   1.93340905   0.40125492
H   -2.50354439   1.54536153  -0.30282200
H   -3.71333154   0.29892866  -0.11339018
C   -4.10618704   1.65943861  -1.72884912
N   -4.51863401   1.90137666  -2.77098397
C    2.58936754   0.09595735  -1.22918905
H    1.99868925  -0.63095139  -1.74649266
H    2.28780505   0.13597232  -0.20334405
H    3.62227807  -0.17728849  -1.28690932
C    2.38690789   1.47784310  -1.87803561
N    2.23616748   2.50671986  -2.36113137
C    0.26854117   2.64320277   0.67925158
H    0.71678442   1.84727529   1.23645677
H    0.98916104   3.41833931   0.52186852
H   -0.06770300   2.27151242  -0.26609768
C   -0.92980984   3.20808342   1.46440425
N   -1.82203663   3.62866275   2.04898609
C    1.87695062  -1.82088897   2.36196968
H    2.10583107  -2.04064251   1.34009772
H    0.82639273  -1.94070312   2.52589585
H    2.41604106  -2.48962405   2.99999317
C    2.28366536  -0.36968412   2.67849397
N    2.58648297   0.71080385   2.91416069
C    0.82805136  -3.54796602  -1.69663350
H    0.15298074  -3.67007943  -0.87549517
H    0.70504724  -4.35939158  -2.38318840
H    0.61995761  -2.62432591  -2.19511623
C    2.27618442  -3.53371904  -1.17288960
N    3.35438530  -3.52311151  -0.78293846
C   -1.37731491   0.23002741   3.45211407
H   -1.91110431   1.08233141   3.81755483
H   -2.02567846  -0.36128043   2.83984057
H   -0.53876841   0.55582153   2.87280668
C   -0.88277759  -0.61451345   4.64114038
N   -0.51457208  -1.24331250   5.52642453
Cl  -0.69907483  -0.83020737   0.05632342
