43
Energy:   -266.32012909
C    0.58106527   2.62670954   0.08148113
H    0.45122612   1.62470169  -0.27068679
H    1.54330768   2.72185705   0.53966840
H    0.50932982   3.30626262  -0.74190258
C   -0.51372972   2.95386267   1.11395136
N   -1.32885434   3.19744304   1.88267237
C   -1.86069802  -0.42636920  -3.21770194
H   -1.28685387  -1.03644234  -2.55180868
H   -1.52046234  -0.57596413  -4.22107632
H   -2.89380412  -0.69592429  -3.14748132
C   -1.68938885   1.05494539  -2.83304594
N   -1.56184139   2.15785144  -2.54665205
C   -2.79437477   0.19816334   0.66528268
H   -2.04953397   0.64208673   0.03835015
H   -2.34933941  -0.57635056   1.25432499
H   -3.20795219   0.94438323   1.31104477
C   -3.91166661  -0.40003334  -0.20959999
N   -4.74354117  -0.84541796  -0.86098990
C    0.11888678  -0.03879463   3.28177393
H   -0.28881562  -0.23970552   4.25043990
H    0.47041662  -0.95089396   2.84657204
H   -0.63888870   0.38571796   2.65690237
C    1.29036559   0.95212903   3.41333263
N    2.16258481   1.68991674   3.51128407
C    2.00464894   0.48290009  -2.96900542
H    1.24479638   0.97388483  -2.39764017
H    2.87687586   1.10141556  -3.00847568
H    2.25017651  -0.45093421  -2.50795357
C    1.48953680   0.23007204  -4.39810914
N    1.10601239   0.04183007  -5.46214183
C    3.62735778   0.03647909   0.75782363
H    4.15833395   0.05930026   1.68650209
H    3.57242316  -0.97150089   0.40305941
H    2.63824750   0.41788872   0.90303604
C    4.36579451   0.90542812  -0.27718303
N    4.91559422   1.55240017  -1.04779253
C   -1.51853685  -3.76887497   1.53487090
H   -1.99880252  -3.01457513   0.94726829
H   -2.03778990  -4.69701944   1.41729881
H   -0.50558408  -3.88320122   1.20967053
C   -1.53787187  -3.35412356   3.01784340
N   -1.55226768  -3.04532228   4.12198383
Cl   0.41361733  -1.28618177  -0.17719083
