43
Energy:   -266.52557824
C   -0.81092457   3.77451514   0.82647978
H   -0.26604443   3.08240036   0.21904010
H   -1.48271606   3.23799158   1.46345526
H   -0.12687249   4.33946618   1.42464545
C   -1.61279214   4.72973040  -0.07694271
N   -2.20981900   5.44093158  -0.74958182
C   -1.39809569  -1.89849726  -2.38872014
H   -2.19915795  -1.39470864  -1.88932404
H   -1.62630531  -1.98629177  -3.43040703
H   -0.49419594  -1.33887068  -2.26754909
C   -1.21765324  -3.30266422  -1.78262142
N   -1.08330563  -4.34813035  -1.33135338
C    1.74231560  -2.59615734   0.19567317
H    2.60338801  -2.66406030   0.82721388
H    1.21186551  -3.52522064   0.21473077
H    1.10316100  -1.81325227   0.54701366
C    2.18637223  -2.28806870  -1.24637229
N    2.51699257  -2.05868271  -2.32004068
C    1.51634369   0.46208688   3.01197666
H    1.65680277   0.73086028   4.03810154
H    0.80091116  -0.33079311   2.94566886
H    1.15975764   1.31077894   2.46657107
C    2.85709537  -0.00507442   2.41553282
N    3.85534594  -0.35289724   1.97145328
C   -2.41644911   1.99170912  -2.30497159
H   -2.62635274   3.02866702  -2.46484333
H   -1.37224378   1.86532228  -2.10860282
H   -2.98205549   1.63817659  -1.46830961
C   -2.80317021   1.18998864  -3.56167006
N   -3.09110165   0.59307130  -4.49733920
C    2.42081912   1.25095477  -0.94949749
H    3.20844778   0.56371265  -0.72093776
H    2.47655540   1.52681991  -1.98182058
H    1.47595604   0.78824567  -0.75447659
C    2.56690081   2.50898753  -0.07336182
N    2.67566527   3.44565011   0.57896100
C   -1.61367113  -2.92133827   2.14150996
H   -2.15663840  -2.03729615   2.40334242
H   -2.24223471  -3.77748924   2.27117276
H   -1.30211497  -2.85906131   1.11976957
C   -0.37594821  -3.05111319   3.04859345
N    0.54559276  -3.14773652   3.72395834
Cl  -1.07042583   0.19733741   0.51387965
