43
Energy:   -268.49219377
C    3.63891103  -0.29714001   0.08472732
H    4.50231457  -0.65847998   0.60325209
H    3.35654625  -1.00007581  -0.67095151
H    2.83238039  -0.17457621   0.77710404
C    3.96345138   1.05822369  -0.57045419
N    4.20508642   2.06735357  -1.05826660
C   -2.62738869   0.88866246  -2.03273120
H   -2.08369765   0.19944780  -2.64451824
H   -1.95696229   1.36152507  -1.34583347
H   -3.08542063   1.63107529  -2.65235126
C   -3.71558857   0.13152684  -1.24904332
N   -4.52580284  -0.43219505  -0.66555208
C   -2.03778416   0.18634606   2.06967652
H   -1.58826209  -0.34528944   1.25715341
H   -2.94328950  -0.30449578   2.35956176
H   -1.36226494   0.20756621   2.89920806
C   -2.35375235   1.62741050   1.62797824
N   -2.58900504   2.70034849   1.29911380
C    1.30845128   1.52447844  -3.40019739
H    0.64687760   1.66820425  -2.57160621
H    2.26762904   1.93711679  -3.16651660
H    1.40919590   0.47791060  -3.59880599
C    0.73512591   2.23000653  -4.64322922
N    0.30825912   2.75530426  -5.56872292
C    0.83969913   2.65293826   0.42763133
H    0.14622731   3.46087424   0.53363359
H    0.41460795   1.89811500  -0.20041201
H    1.74491092   3.01535699  -0.01298569
C    1.14676590   2.05488253   1.81314183
N    1.37539107   1.60960286   2.84471737
C   -2.22516801  -3.31760185   0.00875607
H   -2.91835696  -4.02502904  -0.39613407
H   -1.23309667  -3.57375924  -0.29958941
H   -2.46721430  -2.33770527  -0.34637121
C   -2.30696966  -3.34107896   1.54640275
N   -2.36787470  -3.35855873   2.69125060
C    1.04699555  -2.10918978   2.40997144
H    0.92213414  -1.05767791   2.25624247
H    0.40829363  -2.43165601   3.20556838
H    0.79179873  -2.63358535   1.51287447
C    2.51325120  -2.40373345   2.77731105
N    3.60494518  -2.62303459   3.05081208
Cl   0.25864945  -0.91941427  -0.96181607
