43
Energy:   -268.38265205
C    3.11616418   1.08759030   1.63263002
H    2.24261880   0.47003970   1.65384090
H    3.98815762   0.47014003   1.57534395
H    3.07770734   1.73062465   0.77827237
C    3.17374700   1.93958111   2.91418996
N    3.21662003   2.57392700   3.86836959
C   -2.94892567   2.53301590  -1.18529593
H   -3.63553682   2.88309320  -1.92752984
H   -2.60779659   1.55363335  -1.44862059
H   -2.11321786   3.19893448  -1.13012353
C   -3.65448553   2.48031995   0.18255217
N   -4.17980691   2.44108543   1.20097726
C   -2.62639719  -0.87168002   0.84043797
H   -2.79732662  -0.74871542   1.88951519
H   -3.48771079  -0.54230416   0.29771381
H   -1.77659078  -0.29143432   0.54710695
C   -2.36382436  -2.35783487   0.53384494
N   -2.16832695  -3.46434470   0.30557248
C    1.13027427  -2.30811048   0.80451399
H    0.72429614  -2.97094694   0.06917069
H    0.79938696  -1.31001106   0.60649826
H    0.79844359  -2.60760905   1.77667041
C    2.66840052  -2.35958456   0.74867465
N    3.81360544  -2.39790936   0.70709972
C   -0.99416945  -1.31789189  -2.81510758
H   -0.62738562  -1.49958055  -1.82649287
H   -0.47776986  -0.48216997  -3.23913522
H   -0.82941042  -2.18398659  -3.42143547
C   -2.50242588  -1.01268137  -2.75503188
N   -3.62539134  -0.78543827  -2.71030279
C    3.02498091  -0.41918290  -2.45094619
H    2.67414934   0.52399832  -2.81457592
H    4.09488002  -0.42020199  -2.43631984
H    2.65458103  -0.57953569  -1.45999210
C    2.52315919  -1.54440594  -3.37487697
N    2.14953012  -2.38218563  -4.06278544
C   -0.55177686   2.11003107   2.65352447
H   -1.44987968   2.15722064   2.07379637
H    0.27499171   2.43582726   2.05752979
H   -0.64621418   2.74469563   3.50978470
C   -0.31318931   0.65976526   3.11331254
N   -0.13555004  -0.42002355   3.45564566
Cl   0.36741449   1.28424601  -0.73801666
