43
Energy:   -266.51786023
C   -1.45255638   2.52844262  -0.03404637
H   -0.72198816   2.12085969   0.63307161
H   -1.44009440   3.59628849   0.03265441
H   -1.22549124   2.23102204  -1.03648415
C   -2.84877098   2.00621995   0.35256489
N   -3.88831622   1.61740144   0.64041455
C    2.44640955  -1.43580189   1.87104929
H    2.22172703  -2.24818619   2.53017727
H    2.58470812  -1.80986875   0.87815122
H    1.63719634  -0.73579457   1.87897606
C    3.73540224  -0.73568516   2.34002092
N    4.69511590  -0.21441643   2.68919162
C    0.05652184  -3.92024700  -0.35082722
H   -0.68750453  -3.19488562  -0.60612273
H   -0.18807596  -4.85735794  -0.80568335
H    1.01150793  -3.59100245  -0.70367093
C    0.10493563  -4.08935228   1.17909419
N    0.14098190  -4.21525884   2.31819022
C    2.39252302   2.14800133   0.79560153
H    2.64384750   1.49145022  -0.01104389
H    1.60188355   1.71676221   1.37337410
H    3.25074941   2.29323707   1.41789819
C    1.93352818   3.50457759   0.22936433
N    1.59178566   4.51461029  -0.19222501
C   -3.03567788  -1.14674495  -1.57459571
H   -3.92594891  -0.65192179  -1.90241841
H   -2.37602151  -1.28205748  -2.40612628
H   -2.55144419  -0.55230866  -0.82822963
C   -3.40070035  -2.51971782  -0.98020183
N   -3.67247616  -3.54195853  -0.53764857
C    1.12424655   2.37293176  -3.23460018
H    0.85193088   3.18691713  -2.59571665
H    1.97096697   1.86437326  -2.82310064
H    0.30297008   1.69168888  -3.31404949
C    1.47955792   2.91382684  -4.63202150
N    1.74410339   3.31654782  -5.67246519
C   -1.68296613  -1.06378099   2.12628522
H   -1.20889196  -1.31267135   1.19989036
H   -2.69967233  -0.78513035   1.94308745
H   -1.65748484  -1.91127571   2.77897389
C   -0.93865436   0.11314741   2.78388655
N   -0.38448040   0.98942410   3.27350064
Cl   0.46461730  -0.40230539  -1.02414078
