43
Energy:   -267.90900053
C    0.49171556   3.84268710   0.68535340
H    0.92682897   4.80184429   0.49668970
H    0.43896321   3.28894214  -0.22869408
H    1.09467667   3.31002744   1.39076866
C   -0.92641431   4.02582861   1.25716356
N   -1.98227646   4.16218579   1.68290221
C   -1.00454063  -2.10398397  -1.24629384
H   -0.25900688  -1.55958359  -1.78731864
H   -1.28848757  -1.55077882  -0.37552562
H   -1.86125557  -2.25169321  -1.87008914
C   -0.43585047  -3.47112698  -0.82307818
N   -0.01243480  -4.48902709  -0.50797489
C   -2.35322820   1.64211151  -1.01833919
H   -2.25548414   2.69272739  -1.19596953
H   -1.50519540   1.29318540  -0.46698629
H   -3.24478814   1.45680407  -0.45648412
C   -2.43126020   0.89890562  -2.36487401
N   -2.48935856   0.34555506  -3.36743039
C   -1.55577043   0.80046932   2.98734960
H   -1.39884711   0.35688676   3.94834375
H   -2.02311045   1.75550212   3.10736938
H   -0.61464869   0.92348399   2.49332899
C   -2.46351582  -0.11268749   2.14251651
N   -3.13937352  -0.79257424   1.51349987
C    1.17786671   1.39825988  -3.14371204
H    2.04256226   1.39861304  -2.51347267
H    1.47395887   1.21458188  -4.15538931
H    0.50406718   0.63085682  -2.82435985
C    0.47696651   2.76659983  -3.05435486
N   -0.04488555   3.78539112  -2.98782438
C    3.11030904  -2.54683615  -0.62977854
H    2.43966184  -2.06248314  -1.30840559
H    3.43645426  -1.84625309   0.11029698
H    2.60763394  -3.36188079  -0.15236983
C    4.32961291  -3.07920424  -1.40533143
N    5.23744006  -3.47557648  -1.98276581
C    0.56829848  -2.45817577   2.47149250
H   -0.12986218  -2.02796035   1.78418866
H    0.69833686  -3.49584287   2.24513856
H    1.50841346  -1.95420573   2.38724813
C    0.03290611  -2.30923929   3.90772818
N   -0.36571785  -2.19834932   4.97707093
Cl   1.18864004   0.35601342   0.27837265
