43
Energy:   -266.81291008
C    1.80940543  -0.35360841  -1.71084974
H    0.87403458  -0.37132647  -1.19155442
H    1.79430010  -1.07854796  -2.49770016
H    1.96866774   0.61976296  -2.12567835
C    2.94816394  -0.68566436  -0.72872557
N    3.79602142  -0.93289511   0.00251052
C   -2.18467065  -0.51236163  -2.75946320
H   -2.67105066   0.07596794  -2.00966124
H   -2.02390359   0.08475214  -3.63268036
H   -1.24369061  -0.85889730  -2.38614206
C   -3.07034084  -1.71976370  -3.11914160
N   -3.72976255  -2.61872943  -3.38693852
C   -1.19876262   3.25833396   2.48165891
H   -0.69248424   3.08146141   1.55575477
H   -1.91700485   4.04071756   2.35164701
H   -1.69770933   2.36405413   2.79184412
C   -0.17558103   3.67394588   3.55495578
N    0.58622417   3.98338785   4.35407408
C   -1.88357114  -3.59465220  -0.27373248
H   -2.02304632  -2.66586264   0.23890464
H   -1.74007759  -4.37826385   0.44059340
H   -2.74769327  -3.80741691  -0.86780589
C   -0.64566247  -3.49737753  -1.18462204
N    0.27601680  -3.42495212  -1.86282071
C    1.11318435  -2.36646767   1.91091798
H    0.91037487  -2.12124654   0.88933338
H    2.15362690  -2.21987024   2.11312474
H    0.53302179  -1.73529083   2.55117284
C    0.74261861  -3.83881896   2.16872163
N    0.46671557  -4.93505142   2.36066816
C    2.15574521   1.29959802   2.25337902
H    1.20443086   0.82204350   2.14455407
H    2.20877171   1.77500068   3.21049949
H    2.93296117   0.56839606   2.17477791
C    2.32999854   2.35508119   1.14559246
N    2.45973807   3.14093638   0.32079501
C   -0.44288207   2.85079912  -1.48976461
H   -0.13685321   3.85996994  -1.30859956
H    0.17033279   2.18437555  -0.91989949
H   -1.46568317   2.73065956  -1.19934512
C   -0.29383658   2.53040990  -2.98867628
N   -0.18286544   2.29186556  -4.10468415
Cl  -1.26722237   0.12554595   0.73300564
