43
Energy:   -267.03390941
C   -2.92099655   0.06705921  -0.76267314
H   -3.13044766  -0.46699286  -1.66590001
H   -3.39692184  -0.42376393   0.06042276
H   -1.86371518   0.09204184  -0.60009676
C   -3.45626262   1.50615964  -0.88133308
N   -3.85479254   2.57763532  -0.96968081
C    1.49037200  -0.44994661  -3.31122495
H    1.75449952   0.07979224  -4.20257986
H    2.09969148  -1.32503092  -3.22258908
H    1.64696107   0.18125893  -2.46154352
C    0.00788744  -0.86137217  -3.37881579
N   -1.09588971  -1.16769719  -3.42914024
C   -1.60484971   2.45783890   2.29917055
H   -0.62210444   2.22630788   2.65343784
H   -1.97134836   3.32600658   2.80598679
H   -1.56906733   2.64773071   1.24676387
C   -2.54328573   1.26825361   2.57453336
N   -3.24199401   0.38255329   2.77955348
C    0.42802298  -0.74958174   3.53366335
H    0.65954998  -1.74485412   3.85104059
H    1.27621119  -0.32737649   3.03645256
H   -0.40390608  -0.77409859   2.86121108
C    0.07139550   0.11049402   4.76032000
N   -0.19412986   0.75085952   5.67362163
C   -0.48069229   2.82967052  -2.41325261
H   -0.77334963   1.83494938  -2.14909030
H   -1.34050660   3.46655160  -2.41229120
H    0.23248696   3.19219591  -1.70272479
C    0.15156150   2.82292711  -3.81746402
N    0.62230320   2.81790635  -4.86296323
C   -0.07243143  -2.69979329  -0.06987329
H   -0.61752193  -1.95260509  -0.60791262
H    0.35693495  -2.26487792   0.80841609
H   -0.73510901  -3.49135238   0.21153696
C    1.04788713  -3.26188639  -0.96460099
N    1.88201523  -3.68039026  -1.63076643
C    3.72385380  -1.27257291   0.67387224
H    3.62004594  -0.29632561   1.09938995
H    3.14660791  -1.33306744  -0.22503081
H    4.75381006  -1.45612171   0.44937498
C    3.22169408  -2.32640114   1.67830326
N    2.84781335  -3.11102415   2.42614782
Cl   0.84771725   0.79894037   0.25832836
