43
Energy:   -266.47525801
C   -2.51033358  -1.63226923  -1.16796873
H   -1.66686753  -1.78390193  -1.80865018
H   -2.19206727  -1.14987578  -0.26746765
H   -3.23082953  -1.01786380  -1.66625644
C   -3.14538531  -2.99260442  -0.82475235
N   -3.61821018  -4.00543580  -0.56921215
C   -1.81589459   1.58979726   1.29610485
H   -2.40424243   1.12445046   2.05912474
H   -1.45265807   2.53178798   1.65052241
H   -0.98811150   0.95838273   1.04914343
C   -2.68329295   1.81255163   0.04326784
N   -3.32911045   1.97840239  -0.88952627
C    3.12921697  -0.21493065  -3.00030731
H    3.74947783  -0.58554491  -3.78949785
H    2.11543962  -0.50904330  -3.17538534
H    3.46132169  -0.61800567  -2.06642505
C    3.21760417   1.32190867  -2.95657364
N    3.28341247   2.46615539  -2.92401194
C    2.22156134   2.44834499   0.36779155
H    1.44684270   2.24046011  -0.34037164
H    2.76687551   1.55101814   0.57354888
H    2.88520050   3.18449043  -0.03541070
C    1.59658688   2.97952549   1.67119256
N    1.13126498   3.37501351   2.64163386
C    1.12308869  -0.24381306   3.31953401
H    1.92201391  -0.37490609   2.61993892
H    1.27324190   0.66347960   3.86650123
H    0.19284614  -0.19320938   2.79323832
C    1.09597905  -1.43379388   4.29667818
N    1.07579470  -2.31978869   5.02420642
C   -0.50417070   1.44463020  -2.90986048
H    0.30504692   1.95122743  -2.42671840
H   -0.74522871   0.55619664  -2.36444693
H   -1.35929725   2.08703359  -2.94109443
C   -0.09115209   1.06960776  -4.34526070
N    0.21635904   0.79038650  -5.41398141
C   -0.90200176  -3.41923420   1.98560800
H   -1.46433707  -4.21189690   1.53798649
H   -0.35585553  -3.79860400   2.82388119
H   -0.21866505  -3.01688168   1.26723311
C   -1.86219732  -2.31146842   2.45728530
N   -2.57710656  -1.48668645   2.80847048
Cl   0.90784045  -0.80509266  -0.26971222
