43
Energy:   -266.50385043
C    1.36775244   2.50189986  -1.99882455
H    0.48959447   2.14129252  -1.50516363
H    1.53650937   3.52268736  -1.72603696
H    2.20993047   1.91049700  -1.70577522
C    1.17665250   2.40291179  -3.52371214
N    1.03436990   2.32921067  -4.65906027
C    3.01142425   2.46160364   1.38644155
H    2.01392463   2.45986683   0.99928310
H    2.99551991   2.76710154   2.41177914
H    3.42383986   1.47693769   1.31401617
C    3.87639975   3.44159937   0.57217763
N    4.52041333   4.17125073  -0.03407888
C   -0.05342831  -1.47248625   3.39778694
H   -0.06710930  -2.02650032   2.48248293
H    0.15686295  -2.13406346   4.21203032
H    0.70348332  -0.71791769   3.34669707
C   -1.42578948  -0.80895699   3.61677031
N   -2.44757476  -0.31492930   3.77981338
C   -1.36270140   1.92746655   1.08292385
H   -1.41735532   1.49011614   0.10791732
H   -2.34848230   2.01772785   1.48911099
H   -0.76993055   1.30512463   1.72027176
C   -0.71839875   3.32272502   0.98429385
N   -0.23868614   4.36155838   0.91085933
C   -0.53163156  -0.68154652  -3.23277251
H   -0.89180753  -1.68647068  -3.30557964
H    0.29992415  -0.64854780  -2.56022118
H   -0.22224366  -0.34263975  -4.19937502
C   -1.65535527   0.22952877  -2.70476983
N   -2.49201866   0.90786573  -2.31164784
C    0.70496261  -3.93467313  -0.40431143
H    0.20210772  -3.19513267  -0.99177808
H    0.89831171  -4.79767695  -1.00659011
H    1.63055526  -3.53588398  -0.04494456
C   -0.18174353  -4.33093712   0.79081496
N   -0.84193655  -4.62597368   1.68064087
C   -2.61256561  -1.57441028   0.31198127
H   -1.60579978  -1.23451070   0.43764361
H   -2.93350925  -2.07537040   1.20132553
H   -3.25109127  -0.73655994   0.12438891
C   -2.68063738  -2.54848337  -0.87887886
N   -2.73131991  -3.27372507  -1.76552835
Cl   1.22857765  -0.45157600   0.19759824
