43
Energy:   -266.45865706
C   -1.16683921   3.06341891  -1.17969240
H   -1.08517996   2.01681895  -1.38672009
H   -0.60200897   3.29848460  -0.30184844
H   -0.78586367   3.62185000  -2.00909668
C   -2.64562338   3.42769895  -0.95144382
N   -3.74664542   3.69892199  -0.78150238
C    0.21572682  -0.26559334  -2.89847497
H    0.04054066  -0.18761156  -1.84579799
H   -0.42838472  -1.01279539  -3.31285224
H    0.01491113   0.67655770  -3.36422551
C    1.68393012  -0.65841033  -3.14681723
N    2.77707421  -0.95088043  -3.33171933
C   -3.23921389   0.35756435   0.73467408
H   -3.94855423   1.15738256   0.68964848
H   -2.29900708   0.73371499   1.08024743
H   -3.59206113  -0.39455802   1.40899586
C   -3.06365248  -0.25245881  -0.66841178
N   -2.93293902  -0.70664878  -1.71307298
C   -0.99362740  -0.42413646   3.92766404
H   -0.13037158  -0.94408666   3.56802343
H   -0.95434392   0.59621995   3.60793181
H   -1.87645893  -0.88629964   3.53790414
C   -1.02199189  -0.47917794   5.46641869
N   -1.04311055  -0.52015883   6.61209148
C    3.03423400   2.25751715  -1.22348112
H    2.97433569   1.19017980  -1.17761888
H    2.61492386   2.67687498  -0.33285376
H    4.05879107   2.55389500  -1.30916707
C    2.24933827   2.76356164  -2.44800457
N    1.66494773   3.14033476  -3.35971794
C    3.26949543  -1.69654619   0.08879915
H    2.46338213  -1.24371232  -0.44973871
H    4.19152946  -1.49966691  -0.41715628
H    3.31115789  -1.28940406   1.07743387
C    3.04269303  -3.21763046   0.16919385
N    2.87382834  -4.35014684   0.22905136
C   -0.48063562  -2.76368834   0.47595510
H    0.27787383  -2.34398839   1.10318355
H   -0.65959579  -2.11099158  -0.35281464
H   -0.15753697  -3.71783043   0.11523465
C   -1.77977621  -2.93388693   1.28519313
N   -2.74704542  -3.06060751   1.88770762
Cl   0.62175378   0.67991988   0.89687706
