43
Energy:   -268.25070525
C   -2.86369803   2.68860301   0.99658723
H   -2.75137908   1.86589089   0.32173214
H   -1.98324326   3.29596811   0.96819484
H   -3.71073863   3.27460630   0.70672266
C   -3.07344514   2.15513413   2.42592872
N   -3.22961140   1.75794230   3.49013843
C    2.18311043   0.85701638  -3.26174217
H    1.51790959   1.69510084  -3.25700325
H    3.13229152   1.15724923  -3.65393420
H    2.30830336   0.49536917  -2.26252392
C    1.59420588  -0.26080996  -4.14222823
N    1.15573967  -1.09308249  -4.79779012
C   -2.00609985  -0.31576341  -2.73189848
H   -0.97246985  -0.04593978  -2.79276232
H   -2.48294736   0.26786889  -1.97236646
H   -2.47911430  -0.13056699  -3.67363024
C   -2.12666343  -1.81064904  -2.38206799
N   -2.21642850  -2.92365935  -2.12160328
C   -2.10396259  -1.32946647   1.30449484
H   -2.03679371  -2.39670669   1.34173506
H   -2.02308952  -0.93223366   2.29472953
H   -1.31065478  -0.94306585   0.69930367
C   -3.45880497  -0.92128400   0.69672088
N   -4.46754671  -0.61737359   0.24420554
C    3.38267917   0.36755964   1.06954761
H    4.08385748   0.45348043   1.87320598
H    2.54190701  -0.21142572   1.39013649
H    3.05357711   1.34291580   0.77753512
C    4.05725209  -0.32658094  -0.12825046
N    4.55950230  -0.84340016  -1.02006557
C    1.15086969  -2.32824648  -1.09768785
H    2.14967580  -2.38270467  -1.47758369
H    0.75520415  -1.34978444  -1.27364210
H    0.54068950  -3.05414876  -1.59331383
C    1.16100151  -2.61336519   0.41565437
N    1.16854511  -2.82564903   1.54240643
C    0.32142366   1.04779657   3.30146509
H    0.14717289   1.93349490   2.72694327
H   -0.48676290   0.90297201   3.98758420
H    0.38813762   0.20478627   2.64588750
C    1.63938311   1.19479707   4.08439148
N    2.62066384   1.30424563   4.66731576
Cl   0.17035150   1.39310907  -0.33247268
