43
Energy:   -267.13759265
C   -0.96333026   2.84828046  -1.27944786
H   -1.10168465   3.41281816  -2.17781050
H   -1.05742099   1.80465042  -1.49597121
H    0.01065682   3.04365910  -0.88186081
C   -2.03059824   3.25661686  -0.24707174
N   -2.82522776   3.56064186   0.52157920
C   -0.33403476  -1.10302450  -2.50358389
H   -1.20656000  -0.69242321  -2.96727179
H    0.30816762  -1.51497342  -3.25376606
H    0.18503591  -0.33156095  -1.97414198
C   -0.74961647  -2.21141769  -1.51851721
N   -1.05903594  -3.03666681  -0.78509029
C   -2.67284878  -0.16369145   0.83134792
H   -2.95622527  -1.10702742   1.24933740
H   -3.04760966   0.62656747   1.44774407
H   -1.60580601  -0.10174219   0.78153724
C   -3.26136794  -0.03253532  -0.58570651
N   -3.69954720   0.06511637  -1.64076795
C   -0.78286044   2.43741073   3.05196498
H    0.25084833   2.51683716   3.31661152
H   -1.20284788   3.41689046   2.95641863
H   -0.87377850   1.91797754   2.12093214
C   -1.53530769   1.66097155   4.14858039
N   -2.09553886   1.08287730   4.96506041
C    2.75682719   1.31910629  -2.60521528
H    3.70528372   1.48735525  -3.07107221
H    2.67855080   0.29180204  -2.31639375
H    2.66975078   1.94083477  -1.73874515
C    1.62974121   1.66068010  -3.59748769
N    0.79057447   1.91499733  -4.33627959
C    2.74161961  -2.58953472  -0.06237011
H    3.05710790  -3.54168336   0.31016215
H    1.70597809  -2.44349967   0.16350485
H    3.31979687  -1.81653793   0.39924239
C    2.94595922  -2.54187120  -1.58800883
N    3.09809936  -2.50638355  -2.72391621
C    0.06841065  -2.07508016   2.69431255
H   -0.76640923  -2.04774030   3.36306399
H   -0.27914080  -1.98687328   1.68618229
H    0.72964908  -1.26356488   2.91591080
C    0.81845379  -3.40935881   2.86382884
N    1.37689500  -4.40278991   2.99004143
Cl   1.25939093   0.65388951   0.57313345
