43
Energy:   -266.34079823
C   -1.10346267  -2.04783279  -1.38685265
H   -1.46210539  -1.84176867  -2.37367237
H   -0.86592013  -3.08780597  -1.30361549
H   -0.22616690  -1.46531365  -1.19731987
C   -2.19182096  -1.68601860  -0.35915293
N   -3.00215318  -1.41663148   0.40601622
C    1.33251110   0.89019080  -2.91835138
H    2.20301388   1.11373704  -2.33770333
H    0.46686177   0.92244752  -2.29025120
H    1.23160034   1.61164125  -3.70207669
C    1.47076206  -0.51632609  -3.53006776
N    1.57369619  -1.56354184  -3.98551841
C   -2.26140292   1.86868698  -0.54084777
H   -3.08880704   1.46580847   0.00503821
H   -2.29661734   2.93748997  -0.50452691
H   -1.34602721   1.52695963  -0.10471842
C   -2.33733392   1.40208462  -2.00649327
N   -2.39386801   1.05467796  -3.09773296
C   -1.31478423   0.92332111   3.14759786
H   -1.63585168   0.29934873   2.33983903
H   -1.75120941   0.57695490   4.06108711
H   -0.24825766   0.88578649   3.22513056
C   -1.75956286   2.37390767   2.88383551
N   -2.09072076   3.45393531   2.68745245
C    1.24668219   3.84367243   0.03131945
H    0.33161286   3.30993006   0.18187639
H    1.22476304   4.75452446   0.59236065
H    2.06853723   3.24226520   0.35959179
C    1.41238855   4.16649385  -1.46531936
N    1.53576447   4.40684907  -2.57963499
C    2.76392877  -2.68646636  -0.57946260
H    3.01365051  -2.24202049   0.36128556
H    2.27975519  -1.96104137  -1.19932840
H    3.65648095  -3.02803271  -1.06069241
C    1.81675457  -3.87860780  -0.34868172
N    1.11154032  -4.76621129  -0.17685487
C    0.07699543  -2.53767722   2.53003622
H    1.10742228  -2.24956463   2.51946182
H   -0.48946052  -1.85846744   1.92778975
H   -0.02036641  -3.52845833   2.13789779
C   -0.45064851  -2.50391411   3.97642895
N   -0.84350340  -2.47877595   5.05333408
Cl   1.25532941   0.31376328   0.62149637
