43
Energy:   -267.10223733
C   -1.25689071   0.21911159   3.97243934
H   -2.04543923  -0.12739915   3.33759943
H   -0.55727606  -0.57353184   4.13722656
H   -0.75893217   1.04299406   3.50536969
C   -1.84558152   0.67286797   5.32119739
N   -2.28388858   1.01071022   6.32540907
C    0.61433855   3.60007248  -0.63539640
H    1.18492209   2.78256763  -0.24678295
H   -0.39183808   3.53487452  -0.27726666
H    1.04858969   4.52328825  -0.31290967
C    0.61626994   3.54176403  -2.17429094
N    0.61770796   3.49835073  -3.32006787
C    0.18476651  -2.81113124   1.76241403
H   -0.35167980  -3.73495273   1.70175612
H   -0.49751347  -1.99449798   1.65059614
H    0.67043104  -2.74248355   2.71336963
C    1.23982934  -2.75566156   0.64198307
N    2.02537158  -2.71436187  -0.19222871
C   -1.70426176  -2.37318020  -1.67259615
H   -2.40643650  -1.71518456  -1.20473660
H   -1.92779930  -2.44969118  -2.71618425
H   -0.71460242  -1.98618575  -1.54726153
C   -1.79629790  -3.76706863  -1.02436440
N   -1.86482299  -4.80488192  -0.54172640
C   -2.09910438   1.30166988  -3.00034621
H   -1.12034549   1.19018805  -2.58261061
H   -2.83100202   1.19810684  -2.22671863
H   -2.18774611   2.26949881  -3.44794972
C   -2.32682261   0.21822163  -4.07080606
N   -2.49636919  -0.58845484  -4.86781208
C    2.26400833   0.68778601   1.78570819
H    3.23634875   1.09554076   1.60352597
H    1.56195429   1.48455039   1.91680262
H    1.96811522   0.08517446   0.95251813
C    2.30086294  -0.17851247   3.05840951
N    2.32830288  -0.82351107   4.00599350
C    1.72797273  -0.04000377  -2.30996316
H    2.13480018  -0.98788048  -2.59442992
H    1.28735358   0.42990595  -3.16432767
H    0.98122404  -0.18378662  -1.55724012
C    2.85136939   0.85485283  -1.75425494
N    3.68778927   1.52111424  -1.34050492
Cl  -1.06767799   0.58915011   0.39045819
