43
Energy:   -267.55660703
C    1.09060743   2.15969781  -1.06912784
H    1.97628722   2.19045558  -0.46952343
H    0.35746501   1.54415730  -0.59109942
H    0.70371551   3.15055533  -1.18495145
C    1.42790337   1.57525265  -2.45341657
N    1.67903554   1.14010666  -3.48408245
C    2.07583827  -1.44368204   2.32605137
H    1.10253683  -1.03033312   2.48953581
H    2.60864969  -1.47909005   3.25328238
H    1.98119208  -2.43358967   1.93105256
C    2.84603575  -0.56290583   1.32473767
N    3.41948278   0.09287209   0.57921411
C    1.48145661  -1.91521174  -1.72609471
H    0.69164858  -1.42714541  -1.19421624
H    1.14998621  -2.15648113  -2.71443450
H    2.32865374  -1.26412490  -1.78303368
C    1.87592952  -3.20749549  -0.98718075
N    2.16963253  -4.16965949  -0.43702573
C    0.51634174   2.15412482   2.95031586
H    0.51333694   3.22398690   2.96723601
H   -0.46625812   1.79119829   3.16867551
H    0.81509433   1.81358133   1.98094693
C    1.50489703   1.62679323   4.00685730
N    2.24092138   1.23417088   4.79350042
C   -1.87171920  -0.35376800  -2.59551365
H   -1.04800303  -0.25391393  -1.91992427
H   -1.57814160  -0.95679625  -3.42922115
H   -2.69272470  -0.81853374  -2.09069500
C   -2.29815361   1.03934442  -3.09450412
N   -2.61565341   2.07657994  -3.46602521
C   -2.56790399   2.96240089   0.22998800
H   -2.87920867   2.40027634   1.08556124
H   -2.10627907   2.30700224  -0.47871090
H   -3.41934497   3.43006439  -0.21860781
C   -1.55881244   4.04164024   0.66424215
N   -0.80749791   4.84518300   0.98756410
C   -1.56609938  -3.84162176   0.46959362
H   -2.42700349  -3.31926409   0.83137635
H   -0.68032078  -3.36564941   0.83530619
H   -1.59378014  -4.85498231   0.81198706
C   -1.56206042  -3.81998901  -1.07024914
N   -1.55905324  -3.80388244  -2.21673206
Cl  -1.25862990  -0.32132453   0.98734542
