43
Energy:   -267.48234632
C   -1.95751298   3.43707107  -0.24507766
H   -1.50112318   3.41893355   0.72253774
H   -2.17222041   2.43631095  -0.55697344
H   -2.86668634   3.99946018  -0.20011800
C   -0.99682321   4.09410328  -1.25353383
N   -0.28154601   4.58329362  -2.00437529
C   -0.02626694   0.67749393  -2.77588044
H    0.06910624   0.44673579  -1.73542149
H    0.63006446   1.48541563  -3.02365191
H    0.23196727  -0.18292095  -3.35717247
C   -1.47982644   1.08516480  -3.08013239
N   -2.56206755   1.38869430  -3.30666180
C   -3.36897023  -0.32744531  -0.31870109
H   -2.40112556  -0.48646856  -0.74635572
H   -3.26651719   0.18500767   0.61499822
H   -3.96132095   0.26270891  -0.98633701
C   -4.05685786  -1.68550324  -0.08613011
N   -4.56902146  -2.69663910   0.08702957
C    1.14359707  -1.60586653   3.67156772
H    1.76295523  -0.87238103   3.19902707
H    0.13222740  -1.25730061   3.69463903
H    1.19259401  -2.52213629   3.12116049
C    1.63728251  -1.84446862   5.11064511
N    2.00485376  -2.02211873   6.18210364
C    2.28621912   2.80538297  -0.36708266
H    1.28322188   2.51374842  -0.59913007
H    2.37483573   3.86905151  -0.44228529
H    2.52589012   2.49705773   0.62910630
C    3.25729834   2.13798783  -1.35864146
N    3.98031096   1.64108180  -2.09690206
C   -0.88928805  -3.14124859   0.58663039
H   -0.90783791  -2.21411528   1.12046548
H   -0.11236771  -3.76342690   0.97929821
H   -1.83195346  -3.63530572   0.69703223
C   -0.62404066  -2.86908239  -0.90574000
N   -0.42655192  -2.66644229  -2.01687759
C    2.64003505  -1.16237450  -0.25497719
H    1.75404980  -1.08904012  -0.85042021
H    3.50051767  -1.04370613  -0.87978642
H    2.63268177  -0.39563722   0.49131964
C    2.68732308  -2.54224593   0.42716553
N    2.72253117  -3.56962292   0.93505179
Cl  -0.18963662   0.63079301   1.17858747
