43
Energy:   -267.02715933
C   -2.22653167  -0.83604702   2.36484729
H   -2.64735710  -1.16791360   1.43874216
H   -1.54916896  -0.02867888   2.17981882
H   -3.00967098  -0.50305236   3.01346618
C   -1.46861703  -1.99967928   3.03052392
N   -0.90431514  -2.86605639   3.52615043
C    2.82796069  -0.68473512  -1.88638443
H    2.43226853  -1.52659977  -1.35762001
H    3.61702687  -1.00819602  -2.53264034
H    2.05249806  -0.23279355  -2.46888389
C    3.37788364   0.34200635  -0.87891895
N    3.78732627   1.10646205  -0.12881511
C    0.40306798  -3.95536746   0.20775107
H    0.06512548  -4.91360864   0.54311487
H    0.04510821  -3.77827538  -0.78492324
H    0.02919944  -3.19611327   0.86246817
C    1.94274101  -3.92385509   0.21148363
N    3.08909757  -3.90039270   0.21426269
C   -0.23716116   1.89330249  -3.34641424
H   -0.84366928   1.02415005  -3.49345882
H   -0.86417221   2.73413954  -3.13487394
H    0.42834018   1.72899508  -2.52482424
C    0.58036136   2.17053584  -4.62171758
N    1.18904403   2.37694867  -5.57123888
C    0.44005677   2.46639877   0.64591299
H   -0.21022928   1.81170261   1.18757817
H    1.09755654   2.96176323   1.32943856
H    1.01581526   1.89805841  -0.05436587
C   -0.39898890   3.51370446  -0.10956908
N   -1.02369654   4.29347115  -0.67205981
C    1.95857669  -0.93471455   2.20398976
H    1.46489387  -0.90512261   1.25514742
H    1.83858536  -1.90518832   2.63836498
H    3.00029935  -0.72998572   2.07057653
C    1.34250570   0.12479737   3.13645480
N    0.88381285   0.91365214   3.83071740
C   -3.44324538   1.47856203  -0.59985292
H   -2.49546236   1.52020375  -0.10500597
H   -3.63007916   2.41030506  -1.09163251
H   -3.43397043   0.68945109  -1.32242956
C   -4.55179440   1.21334504   0.43570442
N   -5.37715954   1.01587893   1.20672393
Cl  -0.59386220  -0.69145840  -0.84760881
