43
Energy:   -268.80243192
C   -1.47112435   1.34048512  -2.02220203
H   -1.10827694   2.27332572  -2.40042200
H   -0.89136652   1.05110392  -1.17071013
H   -2.49672957   1.44629363  -1.73612932
C   -1.35166624   0.26209750  -3.11509265
N   -1.26272424  -0.54081110  -3.92879939
C   -0.43933239  -2.47716707  -0.99284470
H   -0.56738915  -3.25592303  -0.27032078
H   -1.28549592  -2.45524952  -1.64738728
H   -0.35196296  -1.53608007  -0.49122639
C    0.83707216  -2.74234779  -1.81264383
N    1.78741336  -2.93978689  -2.42302154
C   -2.57244713   1.28417677   1.80454182
H   -3.35516566   2.01372423   1.80102172
H   -1.68024892   1.71634692   1.40191246
H   -2.39067627   0.96092753   2.80821925
C   -2.99163093   0.07740697   0.94454672
N   -3.30373232  -0.82108800   0.30424127
C    0.41425376   4.02914602   0.13549539
H    0.90903897   4.95543305  -0.06963900
H    0.74318694   3.28705209  -0.56164065
H    0.64825150   3.71248380   1.13041709
C   -1.10806949   4.21980286   0.00214657
N   -2.24150834   4.36175554  -0.09713768
C    2.35685360   0.55985643  -2.28048126
H    2.77478116  -0.03894946  -3.06257348
H    1.48391545   0.07911462  -1.89091050
H    3.07747669   0.67883589  -1.49853155
C    1.97456950   1.94235912  -2.84096783
N    1.68994161   2.97169521  -3.25827556
C    3.20082616  -2.18218770   0.94583291
H    2.81200862  -1.70185337   0.07233418
H    4.20207971  -2.50906254   0.75730372
H    3.19899667  -1.49171921   1.76323673
C    2.32200766  -3.39681530   1.29790938
N    1.66768734  -4.30116075   1.56004632
C   -0.64158791  -2.02587719   2.97004731
H   -0.93298772  -1.81422724   1.96248062
H   -0.40254754  -3.06482183   3.06144100
H    0.21618826  -1.43884854   3.22404828
C   -1.80078802  -1.68007306   3.92308174
N   -2.66386519  -1.42260617   4.63265919
Cl   0.99477459   0.61323288   1.06799389
