43
Energy:   -270.21430843
C   -0.92647133   3.50437120  -1.78673451
H    0.06951604   3.67497795  -1.43487845
H   -1.44591773   2.87416992  -1.09541629
H   -1.43967205   4.43938381  -1.87203122
C   -0.87370860   2.82012335  -3.16536462
N   -0.83442435   2.31066972  -4.19181739
C   -2.11483619  -0.24325278  -1.89448009
H   -2.71381761   0.61324722  -2.12367259
H   -1.76161537  -0.68487451  -2.80283266
H   -1.28034178   0.05519690  -1.29494197
C   -2.96217430  -1.26991359  -1.12015091
N   -3.59305604  -2.03430924  -0.54362763
C   -2.60086452   1.00815861   1.85726843
H   -2.10327017   0.16682240   1.42200593
H   -3.25460332   0.67271778   2.63508854
H   -1.87496284   1.67950147   2.26624840
C   -3.42089045   1.73560728   0.77561418
N   -4.03143702   2.27722588  -0.02972657
C    1.13416938   0.05369757   3.81716450
H    1.02615937   1.09697503   3.60548985
H    1.54200720  -0.44340747   2.96191367
H    1.79159144  -0.07475158   4.65154819
C   -0.24355730  -0.54751275   4.15185144
N   -1.26933744  -0.99514116   4.40104108
C    1.80394534   0.14257716  -2.98007371
H    2.84947009   0.04892087  -3.18745423
H    1.66143620   0.82011242  -2.16426968
H    1.30055381   0.51706323  -3.84682410
C    1.22878439  -1.23675453  -2.60827543
N    0.80055092  -2.26372967  -2.33145472
C    3.45578994  -1.01531714   0.41357898
H    3.74388399  -1.74730320   1.13890540
H    2.45429321  -1.20854315   0.09021059
H    3.50747864  -0.04017586   0.85098822
C    4.40816509  -1.08717802  -0.79448459
N    5.11725169  -1.14068171  -1.69394282
C   -0.37501298  -2.44684136   0.94615285
H   -1.24059783  -2.33597961   1.56532385
H   -0.59311865  -3.12282396   0.14591756
H   -0.10012327  -1.49435259   0.54353654
C    0.78905766  -3.00436257   1.78621812
N    1.65576116  -3.41946246   2.41168490
Cl   0.71394558   1.34514915   0.52470298
