24
Energy:   -294.75518510
O    2.06567780   1.63958401   0.30019202
H    1.50419579   1.25540593   0.97352478
H    2.39765529   2.44555182   0.69571534
O    0.33897571   0.63383844   2.09500322
H   -0.55617933   0.90769630   1.89517538
H    0.34244905  -0.30997893   1.93553984
O    0.36726771  -2.05115572   1.26678966
H    0.95529642  -1.92950975   0.52136605
H    0.58756084  -2.91821755   1.60724019
O   -2.11397202   1.16967404   0.92383826
H   -2.07841117   0.28900044   0.55050024
H   -3.02593505   1.27956165   1.19305934
O    1.91773304  -1.45612652  -0.92712884
H    2.35610448  -0.64549380  -0.66840713
H    1.23620756  -1.17596023  -1.53808033
O   -0.31854890   1.84806321  -1.11732275
H    0.53093557   1.89988089  -0.67923267
H   -0.95479873   1.80856500  -0.40327941
O   -0.28954837  -0.52056304  -2.39582092
H   -0.31627884   0.34980477  -1.99835746
H   -0.54778876  -0.37667591  -3.30622756
O   -1.84025546  -1.26256843  -0.17806004
H   -1.47759614  -1.19523059  -1.06133558
H   -1.15027619  -1.68555337   0.33306050
