24
Energy:   -294.13957596
O    1.66927788   1.89900934   0.57502234
H    1.18357224   1.31582892   1.15830826
H    2.14909894   2.48185919   1.16348615
O    0.20408368   0.30860915   2.21159689
H   -0.66151795   0.53077215   1.86865484
H    0.30371344  -0.62496239   2.02518355
O    0.56133338  -2.21884796   1.12624444
H    1.14802605  -1.91173362   0.43508285
H    0.77748189  -3.14549644   1.23033220
O   -2.10699751   0.97579681   0.74873250
H   -2.08734625   0.10099921   0.36069276
H   -3.01005295   1.08610328   1.04631476
O    2.11610451  -1.01503566  -0.84371421
H    1.39831564  -0.80287296  -1.44036987
H    2.37056134  -0.17333565  -0.46552820
O   -0.42737230   2.01411011  -1.24321313
H    0.34915469   2.18436001  -0.71005964
H   -1.13542987   1.90590206  -0.60825065
O   -0.18175452  -0.42514663  -2.30857448
H   -0.26697117   0.47358579  -1.99037641
H   -0.47251484  -0.38573250  -3.21969292
O   -1.70173322  -1.51570723  -0.29711396
H   -1.23981904  -1.22028927  -1.08171281
H   -1.01180851  -1.85021931   0.27589337
