24
Energy:   -283.69388921
O    2.56345986   0.03239103   0.51322373
H    3.46735719  -0.27463458   0.44296182
H    2.09549988  -0.43944949  -0.17569703
O   -0.81675344   1.87567295   1.18893988
H   -1.32469724   2.29802353   1.88164829
H   -0.45036215   1.09405786   1.60254251
O   -2.54785730  -1.08833273  -1.24948877
H   -2.01829362  -0.31796797  -1.45523690
H   -3.18196899  -1.14159779  -1.96453915
O    0.31014829  -0.38657276   2.09919475
H    1.17514564  -0.29548154   1.69955263
H   -0.09164384  -1.12203504   1.63671214
O    1.47387026   2.43447263  -0.40426246
H    0.75383629   2.49253810   0.22375931
H    2.01009091   1.70735807  -0.08802887
O    0.95319598  -1.17863150  -1.25426189
H    0.37799271  -0.43767469  -1.44493447
H    0.41709287  -1.76843188  -0.72420452
O   -0.75639955   1.00974591  -1.43170777
H   -0.97994632   1.26257865  -0.53597662
H   -0.02044858   1.57588354  -1.66429366
O   -0.85720516  -2.34442185   0.48480154
H   -1.18288237  -3.21575900   0.71049552
H   -1.54531368  -1.96521393  -0.06195241
