24
Energy:   -282.39575121
O   -1.12363309  -0.16060649  -1.54877823
H   -1.58774196  -0.62142357  -0.84986305
H   -1.09999821   0.75175399  -1.26021003
O   -0.51283487   0.67942353   1.93382516
H    0.35826714   0.49355462   1.58330287
H   -0.39003752   0.70107207   2.88286889
O   -1.06430968   2.29004673  -0.22614117
H   -0.94793323   1.80539506   0.59104984
H   -1.94798341   2.65302242  -0.16613093
O   -0.08588821  -3.25254186   0.42468105
H   -0.03548790  -4.14158370   0.07354537
H    0.46279055  -2.73150204  -0.16157912
O    1.85903645   0.30177341   0.73194028
H    1.75130999  -0.38142793   0.07022827
H    1.95380066   1.11047669   0.22870018
O    1.63087639   2.60985407  -0.73653493
H    1.87003241   3.52592058  -0.87745474
H    0.67779554   2.62143905  -0.64858881
O   -2.01190186  -1.32669832   0.73779975
H   -1.54668642  -0.68651317   1.27628783
H   -1.43779706  -2.09252373   0.72567670
O    1.20073692  -1.49028743  -1.26848463
H    0.39115817  -1.01501563  -1.45538248
H    1.69535904  -1.45301306  -2.08713683
