24
Energy:   -296.40065624
O    1.97672021   1.39666047   0.48781606
H    1.38392951   1.09086481   1.17434359
H    2.63479543   1.91412655   0.95192564
O    0.11560827   0.39780093   2.17426813
H   -0.69775865   0.70220371   1.77176962
H    0.08817269  -0.55438177   2.08031473
O    0.24742059  -2.23512056   1.42528442
H    0.81460540  -1.87888027   0.74145250
H    0.83703870  -2.73495161   1.98986502
O   -2.05606540   1.21798365   0.66104581
H   -2.22322415   0.37494939   0.23963979
H   -2.92156193   1.61653851   0.75215908
O    1.78644000  -1.16341564  -0.51537398
H    1.25989994  -1.00784377  -1.29945612
H    2.07091495  -0.29178167  -0.24049203
O   -0.15825526   1.93388565  -1.20949381
H    0.62712179   1.88893844  -0.66415494
H   -0.88260154   1.79751467  -0.59879153
O   -0.03686387  -0.43454088  -2.46233211
H   -0.08446730   0.47186753  -2.15837562
H    0.14820899  -0.36420861  -3.39883265
O   -1.97888892  -1.20770189  -0.57616305
H   -1.35940517  -1.01568909  -1.28015369
H   -1.53505704  -1.86324399  -0.03810203
