24
Energy:   -283.48801611
O    1.48483497  -0.00361090  -2.83006529
H    0.65715339   0.34834422  -2.50249445
H    1.41317665   0.06150139  -3.78235586
O    2.49780026  -0.28776100  -0.33253886
H    2.23288014  -0.25009812  -1.25157677
H    3.39320272  -0.62540379  -0.35453030
O   -0.72554898   0.94955780  -1.60789260
H   -1.19089842   0.19045706  -1.25654118
H   -0.30347081   1.34616425  -0.84579996
O   -1.82771567  -1.28004569  -0.40716475
H   -2.17232029  -2.10653948  -0.74537698
H   -1.01572295  -1.52274985   0.03780083
O   -0.21325334   0.26336286   2.61026087
H    0.12662911   0.90386382   1.98538465
H   -1.16046689   0.27314888   2.47270154
O    0.86048860   1.74932746   0.53484071
H    1.34992159   2.56477002   0.64319494
H    1.52293572   1.10218229   0.29276881
O   -2.80845627   0.18911738   1.70170753
H   -2.57656973  -0.36016493   0.95287549
H   -3.39520050   0.85313572   1.33970931
O    0.47039030  -1.74435877   0.90324106
H    0.28583063  -1.16969558   1.64616218
H    1.23715305  -1.35472660   0.48312977
