24
Energy:   -282.48119750
O   -1.25629458   0.86824757   0.63689515
H   -1.04858618   1.56076597   0.00959351
H   -1.68097440   0.18914859   0.11277352
O   -2.00219458  -1.35528823  -0.86060942
H   -1.23226729  -1.11072954  -1.37406328
H   -2.62016991  -1.70113709  -1.50460236
O    2.25211816   2.38634964  -0.39246633
H    2.09246014   1.52777619  -0.00055717
H    3.20359019   2.48805265  -0.36819058
O   -1.46522785  -1.83271119   1.84485767
H   -1.70507593  -1.90391147   0.92093383
H   -1.55237069  -0.90057939   2.04427752
O   -0.24577939   2.41542373  -1.46559413
H    0.64657592   2.52296517  -1.13640015
H   -0.44799249   3.25024665  -1.88798304
O    1.19912961  -2.31926256   1.98488530
H    0.24445035  -2.25023825   1.99230204
H    1.39278835  -3.03397418   2.59144562
O    1.33693106  -0.03999572   0.47853305
H    0.45380246   0.26387950   0.68823662
H    1.44929169  -0.83208504   1.00408175
O    0.19020979  -0.31343561  -2.03795875
H    0.01424644   0.62560035  -2.09695211
H    0.77648343  -0.40098897  -1.28639406
