24
Energy:   -295.54603960
O    1.96492686   1.44823711   0.52293602
H    1.25971322   1.27497655   1.14654355
H    2.64900898   1.86775507   1.04472926
O   -0.08473436   0.74323316   2.05942062
H   -0.82630389   0.98191604   1.50323993
H   -0.08650896  -0.21395407   2.06403700
O    0.09623778  -1.97788374   1.64081255
H    0.80210152  -1.74361196   1.03823064
H    0.54050236  -2.38728482   2.38327574
O   -2.10845575   1.20828056   0.26327932
H   -2.20288667   0.31680446  -0.07225760
H   -3.00288150   1.54736528   0.29871887
O    1.92171107  -1.19171646  -0.18657448
H    1.32365403  -1.21792534  -0.93348326
H    2.02689538  -0.25960597   0.00405117
O   -0.01249201   1.78768311  -1.42721238
H    0.74258189   1.83797727  -0.84106756
H   -0.76798704   1.73759581  -0.84159273
O    0.18736371  -0.75160118  -2.29873094
H    0.12032651   0.18236082  -2.10010350
H    0.43145310  -0.78331554  -3.22374252
O   -2.00728876  -1.30392038  -0.67107683
H   -1.33596062  -1.26680462  -1.35237912
H   -1.60764284  -1.81598128   0.03199402
