24
Energy:   -282.78454831
O   -0.64035636   2.07485893   0.88825508
H   -0.37088062   1.43980198   1.55181920
H   -0.67646350   2.90948746   1.35550592
O    0.08128308  -0.12423768   2.41973128
H   -0.44403122  -0.77507426   1.95423317
H    0.14211632  -0.46001840   3.31403686
O    0.74761359  -1.95086368  -1.03317057
H    1.42267350  -1.59534045  -0.45513146
H   -0.00565607  -2.09707349  -0.46094740
O   -2.25800503   0.37860440  -0.60733992
H   -2.20384624   0.55438513  -1.54670130
H   -1.75902203   1.08743959  -0.20138365
O    2.21206466  -0.44643562   0.72249515
H    2.11602239   0.33263119   0.17471542
H    1.54763720  -0.34410266   1.40388781
O    1.49409780   1.68755551  -0.79219689
H    0.74659517   1.91275482  -0.23834048
H    1.10866138   1.23862912  -1.54461679
O    0.35242782   0.13696523  -2.74047632
H    0.45273613  -0.65283701  -2.20907956
H    0.88612516  -0.02745855  -3.51788471
O   -1.41129784  -1.77102366   0.77193909
H   -1.77156722  -1.05003036   0.25559959
H   -2.08445746  -2.45065784   0.73750992
