24
Energy:   -283.63579075
O   -0.79265784   2.00655251   0.19284111
H   -1.20941309   2.86822789   0.20074260
H   -1.47717591   1.41169728  -0.11344976
O   -0.58865876  -0.76346844  -2.52577825
H    0.04541224  -0.05250481  -2.61914058
H   -0.11930981  -1.44130106  -2.03947962
O    1.35126464   0.84833229  -1.09794307
H    0.64316267   1.35191026  -0.69640517
H    1.14328475  -0.06334548  -0.89344404
O    2.67035041   0.11985863   1.18018594
H    3.55252953   0.45077468   1.34896510
H    2.40932749   0.53960757   0.36048495
O   -2.46194728   0.04738007  -0.75347198
H   -3.34206847  -0.16851295  -1.06170684
H   -1.88147711  -0.26239734  -1.44868719
O    0.94861509  -1.75023642  -0.34916200
H    1.69121290  -1.68307688   0.25106290
H    0.18313841  -1.81257694   0.22214436
O   -1.24207081  -1.53087902   1.20057004
H   -0.83536426  -0.87776799   1.77001504
H   -1.81142151  -1.02360400   0.62199967
O    0.16352230   0.51722574   2.33747202
H   -0.14724556   1.16862996   1.70872110
H    1.08055090   0.37536357   2.10259861
