24
Energy:   -295.14290940
O    0.71767150   0.79444333   2.11223700
H    1.16615998   0.02250432   1.76698335
H    1.19340476   1.00960948   2.91449210
O   -1.81595646   0.02497073   1.28086962
H   -1.57138698  -0.83083113   0.92870376
H   -1.02739851   0.33570582   1.72567509
O    1.71590953  -1.44119283   0.85578602
H    0.87883584  -1.81811161   0.58472934
H    2.30402607  -2.19256540   0.93187826
O   -1.81115537   1.56153863  -0.93484404
H   -2.61823716   2.06966229  -1.01646011
H   -1.92473789   1.05857654  -0.12839504
O    1.89871829   0.09265199  -1.47226235
H    1.64523803   0.95584541  -1.14534228
H    2.00042197  -0.44186387  -0.68474663
O    0.78728476   2.26719764  -0.24599172
H    0.77683569   1.90080272   0.63824661
H   -0.11589527   2.18259843  -0.55150875
O   -0.63394490  -0.63946397  -2.16201267
H   -1.10621905   0.15972156  -1.92857862
H    0.29014086  -0.39395563  -2.11703490
O   -0.77193018  -2.20992306  -0.00453056
H   -1.27308879  -2.99849108  -0.21245451
H   -0.75198408  -1.71527941  -0.82377513
