24
Energy:   -297.73429499
O    0.62659662   2.37946102   0.09423263
H   -0.21361548   2.08078410  -0.25371505
H    0.53694652   3.33054521   0.15451169
O   -2.03217719  -0.48130566   1.30458577
H   -1.23946878  -0.11847845   1.69980931
H   -2.69448711  -0.41691086   1.99264880
O   -1.64977999   1.29008809  -0.81210311
H   -1.96288087   0.71886767  -0.11074234
H   -1.28644071   0.69163160  -1.46484061
O    1.70433815  -1.37843733   0.83384654
H    0.96388701  -1.87350759   0.48331923
H    1.99012131  -0.82646160   0.10591617
O   -0.26965935  -0.55901307  -2.26162348
H   -0.41658964  -1.29850283  -1.67187927
H    0.61601898  -0.26006453  -2.05562466
O    2.09641022   0.45649071  -1.21132811
H    1.68228898   1.20259494  -0.77766473
H    2.89079219   0.81799040  -1.60440202
O   -0.68824161  -2.35814086  -0.19006602
H   -1.24592070  -1.79188589   0.34339549
H   -1.11693700  -3.21347854  -0.16091865
O    0.29492614   0.53956374   2.16043923
H    0.88652745  -0.15157193   1.86283007
H    0.48234232   1.28051469   1.58415916
