24
Energy:   -288.35615464
O    0.92822066  -0.42032933   2.38106143
H    1.24298539  -0.52941360   3.27842179
H    0.61977313   0.48502562   2.34332032
O    0.08055162  -2.19623668  -1.25253967
H   -0.43220981  -1.97723727  -0.47449929
H    0.20901005  -3.14312703  -1.19660271
O   -1.46674467   1.08477366  -0.45386458
H   -0.60627748   1.48506583  -0.57874151
H   -1.65381793   0.65299783  -1.28741427
O    1.13811729   2.04160993  -0.54509623
H    1.63070927   2.48517783  -1.23562682
H    1.53376242   1.17181660  -0.48891482
O   -0.02502338   2.06980518   1.97863792
H    0.50541732   2.28724250   1.21209665
H   -0.91641348   1.99049334   1.63898343
O   -1.23005762  -1.29256485   0.89683969
H   -1.44387449  -0.44846662   0.49933198
H   -0.55081164  -1.08974491   1.54005102
O   -1.56434149  -0.49775933  -2.69080349
H   -2.18875494  -1.02346105  -3.19078087
H   -0.94701692  -1.13526358  -2.33201311
O    2.00440825  -0.48481711  -0.19285760
H    1.76755740  -0.57186168   0.73048240
H    1.43847800  -1.10999083  -0.64575122
