24
Energy:   -283.44554996
O    1.46748676   1.53608711   0.16089563
H    1.91630589   0.69615650   0.06440831
H    0.90271502   1.42002147   0.92495944
O   -0.31167331   1.20224572   2.19040675
H    0.00083803   0.29842751   2.23140868
H    0.00664720   1.60316392   2.99921358
O    0.63830789  -1.30194090   1.88346107
H    1.30429606  -1.41085060   1.20461625
H   -0.12269165  -1.77844387   1.55171348
O   -2.25211140   0.92662102   0.18306597
H   -3.12951554   1.16905583   0.47907134
H   -1.68520522   1.11880919   0.93000167
O    2.30724395  -1.08156362  -0.39914169
H    1.51268803  -1.20107501  -0.91936258
H    3.01672546  -1.07940499  -1.04168599
O   -0.37364452   1.52704672  -1.84280438
H    0.32179355   1.66722762  -1.20019481
H   -1.16148015   1.38779768  -1.31729836
O    0.17254822  -1.03130434  -2.09073388
H   -0.05937746  -1.30516925  -2.97811223
H   -0.00966172  -0.09175217  -2.07420818
O   -1.58351252  -1.75684922  -0.11553874
H   -0.95723495  -1.63914771  -0.82978982
H   -1.95678781  -0.88626686   0.02224287
