24
Energy:   -285.27849520
O   -0.71907335   1.53906317  -1.06201390
H    0.16012763   1.36334896  -0.72680948
H   -1.29347282   0.98954456  -0.52879126
O   -2.16056034  -0.34833553   0.36488669
H   -1.70385040  -1.05427380  -0.09260543
H   -3.07909859  -0.61762876   0.36557435
O   -0.32485924  -0.26979172   2.42960967
H   -0.02554392   0.63924226   2.41230621
H   -1.09037979  -0.28136989   1.85508719
O   -0.61236842  -2.12242693  -0.93247255
H   -0.38365983  -1.62588895  -1.71820422
H    0.16762486  -2.07024116  -0.38009679
O    0.61335955   2.24143503   1.85482035
H    0.01083037   2.81911721   1.38634012
H    1.22475075   1.93744612   1.18398252
O    1.42944592  -1.55604832   0.86189449
H    1.93483098  -2.19626927   1.36282854
H    0.83153790  -1.16891354   1.50131963
O   -0.09835704  -0.31061364  -2.93399213
H   -0.52404244  -0.14773481  -3.77571315
H   -0.36692553   0.42457482  -2.38299237
O    1.83969467   0.91006483  -0.26052669
H    1.81328100   0.02009112   0.09087188
H    2.37457424   0.84009571  -1.05124789
