24
Energy:   -285.43529715
O    1.48475931   1.45001416   0.73218018
H    1.23041845   0.94076044   1.50172759
H    1.85146054   0.80465662   0.12779976
O    0.95832430  -2.29536549   0.72652774
H    0.79254078  -1.67761477   1.43865955
H    0.09204008  -2.48335673   0.36535909
O    0.42535159  -0.26593734   2.61599896
H   -0.39735161   0.03008980   2.22643610
H    0.32975593  -0.07871361   3.54983009
O   -1.74072606   0.55983262   1.22137152
H   -1.86323936  -0.17915922   0.62545760
H   -1.54714214   1.30120692   0.64768060
O    1.99740845  -0.51053508  -1.07856781
H    1.21172372  -0.38928208  -1.61169919
H    1.77362515  -1.22315997  -0.47997058
O   -0.60343684   2.23045176  -0.77413606
H   -0.53938909   3.17431194  -0.91993626
H    0.15594406   2.01945040  -0.23095016
O   -0.29839201   0.12021926  -2.48637801
H   -0.44344670   0.91521402  -1.97337283
H    0.07440275   0.43154072  -3.31120215
O   -1.71967111  -1.49319141  -0.64861499
H   -1.26953068  -1.07390301  -1.38196530
H   -2.23043565  -2.19585409  -1.05063066
