24
Energy:   -283.32485994
O    1.80132671  -1.82833154  -0.56441204
H    0.99612617  -2.33693044  -0.66038650
H    1.68246696  -1.34249900   0.25171966
O   -2.08025405   1.69731605   2.00408314
H   -2.00439184   0.90003194   1.47985530
H   -2.97468674   1.67659109   2.34436608
O    1.06489378  -0.30085606   1.64603457
H    1.40263912  -0.36766483   2.53917315
H    0.99825736   0.64024715   1.48442956
O   -0.41970834   1.37389142  -1.42692057
H    0.33046548   0.94297840  -1.83653630
H   -0.82471700   1.87487828  -2.13488385
O    1.70741187   0.07403905  -2.47106650
H    2.55161361   0.09039517  -2.92194093
H    1.78356451  -0.64611276  -1.84511602
O    0.46232938   2.26308026   1.06697031
H    0.25031794   2.14050758   0.14162770
H   -0.38764941   2.29086954   1.50628303
O   -0.75916378  -2.84778159  -0.67677775
H   -1.48797911  -3.46823694  -0.66701949
H   -1.12691294  -2.03993408  -0.31848346
O   -1.40169818  -0.43174066   0.42294693
H   -1.17098179   0.14849176  -0.30254059
H   -0.59811772  -0.50302062   0.93812600
