24
Energy:   -287.82905956
O   -0.11382278  -1.52045687  -2.92357305
H   -0.03381609  -1.48529689  -3.87677531
H   -0.11982420  -0.60342542  -2.64925728
O    0.69772678  -2.36436203  -0.47666026
H    0.38459898  -2.16127461  -1.35810132
H    1.00957061  -3.26746377  -0.53490559
O   -0.02305039   0.95603498  -1.86228192
H    0.72193540   0.78790513  -1.28525474
H   -0.78012764   0.97667079  -1.27692728
O   -2.01283130   0.96288690   0.04941031
H   -1.53037915   1.63396645   0.53223948
H   -2.90543833   1.30372213  -0.00817347
O   -0.92048437  -1.17418047   1.44085820
H   -0.44933798  -1.68516133   0.78271573
H   -1.43267056  -0.54408437   0.93402878
O    0.89272485   0.52003840   2.47160666
H    0.23116244  -0.12289147   2.21624768
H    1.14759603   0.26311470   3.35775717
O   -0.38568230   2.67907404   1.33942571
H    0.10124625   2.03117467   1.84869855
H    0.27290960   3.08623802   0.77665927
O    1.88718843   0.12323774  -0.09032874
H    1.70561370   0.29932642   0.83284797
H    1.64330485  -0.79432521  -0.21211085
