24
Energy:   -283.08747147
O   -0.66006898  -0.84856998   2.81248184
H   -1.36250818  -0.65472057   2.19181009
H   -1.04293221  -1.48389950   3.41746449
O    0.41151356   1.30476041  -0.65407457
H    1.05799780   1.19491804  -1.35137267
H    0.82296428   0.91639281   0.11800753
O    1.53913626  -0.15269502   1.40212216
H    2.20648162   0.09998278   2.04011585
H    0.79050849  -0.42482377   1.93290861
O   -0.94998333  -0.98454988  -1.30180291
H   -1.34129925  -0.89952072  -2.17121290
H   -0.52431147  -0.14135282  -1.14670931
O   -2.04009616   2.27577600   0.14118049
H   -2.01960827   3.20919572   0.35222483
H   -1.15710632   2.08134688  -0.17307755
O    1.68029343  -1.78814921  -0.85755154
H    1.75638025  -1.37035011   0.00028676
H    0.74045873  -1.79437175  -1.03894581
O    2.22050139   0.32778691  -2.46404719
H    2.98821307   0.19391140  -3.01986008
H    2.13572367  -0.48842287  -1.97125293
O   -2.49439697  -0.33753584   0.90298212
H   -2.51327548   0.60154470   0.71858257
H   -2.08453490  -0.72570672   0.12995670
