24
Energy:   -289.15589932
O   -0.20414959   0.94504340   2.11614658
H   -0.34472963   1.01633974   3.06027895
H    0.30950466   0.14436994   2.00978319
O   -2.25506698   0.02883608   0.46849857
H   -1.88498021  -0.82798378   0.25606660
H   -1.65352127   0.39619846   1.11612462
O    1.13867314  -1.35619718   1.45803370
H    0.47065008  -1.77353473   0.91415282
H    1.67033787  -2.08216264   1.78443624
O    0.74672148   2.32351087  -0.07764503
H    0.40015636   1.97901992   0.74542875
H    0.92093366   3.24718466   0.10321040
O    2.23466892   0.05275224  -0.68593099
H    1.85666810   0.92185586  -0.55174412
H    1.99006603  -0.43898771   0.09802889
O   -1.26067785   1.32724398  -1.73663599
H   -0.57164227   1.80714206  -1.27711488
H   -1.79194431   0.94338346  -1.03904091
O    0.21608460  -0.90461687  -2.27546622
H   -0.33637929  -0.12306379  -2.28926077
H    1.04533266  -0.60577361  -1.90227431
O   -0.82434706  -2.25077785  -0.22130510
H   -1.28540596  -3.02515806  -0.54378274
H   -0.47332140  -1.83515853  -1.00887948
