24
Energy:   -286.06720283
O   -0.82202204   0.13734607   2.24447274
H   -1.47838082   0.72842214   1.87561765
H   -0.95910901  -0.69070061   1.78427963
O   -1.29544640   0.19128793  -1.29111425
H   -0.62649423   0.80241420  -0.98247285
H   -1.23109306  -0.55562196  -0.69595367
O   -2.56883392   1.60951652   0.70138540
H   -2.49048645   2.53387687   0.46547979
H   -2.34067373   1.13730694  -0.09935981
O    0.81910713   1.77211109  -0.71396196
H    1.28354019   1.29860717  -1.40412702
H    1.22138525   1.46668442   0.09913011
O    1.10304163  -0.41909412  -2.51218460
H    0.17229281  -0.31067026  -2.31678054
H    1.13078791  -0.60984500  -3.44977518
O    1.72455975  -1.72889577  -0.13086056
H    1.68619223  -1.33463761  -1.00225041
H    1.91489504  -0.99675592   0.45563374
O   -0.89194963  -1.94117394   0.41738202
H   -1.18595221  -2.85134868   0.45447998
H    0.04954641  -1.99953144   0.25486599
O    1.74906991   0.50386293   1.53641597
H    0.86207347   0.41011153   1.88380602
H    2.27359154   0.77849129   2.28853841
