24
Energy:   -282.68930638
O    1.72550152   1.25540669   0.52420073
H    1.19154169   0.56611458   0.91916293
H    1.66163214   1.98874072   1.13606162
O   -0.79369482   1.17568183   2.54876220
H   -0.38870002   0.32531292   2.37822254
H   -1.10990160   1.11445153   3.45014779
O    0.38874924  -1.04067884   1.44099186
H   -0.37024605  -1.28714416   0.91239671
H    1.13918132  -1.39232584   0.96200551
O   -2.09768671   1.23988227   0.09460488
H   -2.12927653   0.29170118  -0.03262156
H   -1.74080440   1.35204047   0.97567662
O    2.33452632  -1.38533078  -0.45084085
H    1.71153765  -1.35614596  -1.17697115
H    2.58708206  -0.47217741  -0.31446503
O    0.02046338   1.55565116  -1.60171195
H    0.70415341   1.60531090  -0.93362985
H   -0.79934973   1.61062330  -1.11067591
O    0.25342964  -1.01903880  -2.28297706
H    0.17759463  -0.07611981  -2.13674204
H    0.35755141  -1.10735473  -3.23038975
O   -1.64787053  -1.48015818  -0.35484452
H   -1.05566896  -1.41158830  -1.10372858
H   -2.21990256  -2.21744598  -0.56795928
