24
Energy:   -283.54082083
O   -1.04077036  -2.06736478  -1.02341944
H   -1.26519992  -1.16896199  -1.26577383
H   -0.82956955  -2.01878775  -0.09107491
O   -0.15719144  -1.44284276   1.54776144
H    0.62011496  -1.09529268   1.11045658
H    0.18174497  -2.10793641   2.14693119
O   -0.03372599   2.86895897   1.38633698
H   -0.71601740   2.20887027   1.50878364
H    0.28713233   3.04922753   2.26995740
O   -1.79731186   0.75003212   1.51341897
H   -2.65722980   0.48290108   1.83809418
H   -1.25187195  -0.03084843   1.60803773
O    1.51440123  -2.29176401  -1.87481165
H    1.56443654  -2.72987650  -2.72439141
H    0.58094336  -2.28466110  -1.66306223
O    1.01530962   1.88438008  -0.91182918
H    1.39746224   2.58574189  -1.43935439
H    0.70661310   2.32184205  -0.11837765
O    1.93572813  -0.49774993   0.15688273
H    1.72740046   0.34455913  -0.24727922
H    1.96229337  -1.11479284  -0.57440668
O   -1.43987945   0.62582852  -1.24996644
H   -0.59113954   1.06397838  -1.31239323
H   -1.71179453   0.75767452  -0.34172051
