24
Energy:   -282.47570659
O   -1.65413122  -2.58043595   0.95870766
H   -1.65123523  -3.46769677   0.59955351
H   -1.93305125  -2.02711857   0.22913563
O    2.69703480   1.99190874   0.16942863
H    3.56671269   2.11531907   0.54977335
H    2.54008827   1.04961274   0.23007423
O   -1.40494481   1.15453620   0.79941831
H   -1.84100506   0.53884945   0.21034011
H   -0.89065625   0.60107340   1.38714108
O    0.24825194   2.34678485  -1.03044997
H   -0.35167349   2.12704256  -0.31768447
H    1.10478476   2.41950604  -0.60938583
O    0.33792220  -0.13694473  -2.00345279
H    0.31494307   0.77955669  -1.72826385
H    0.82621877  -0.12816032  -2.82669099
O    1.97923466  -0.61953283   0.19415464
H    1.36599599  -0.72790728   0.92108323
H    1.42418131  -0.58469956  -0.58490523
O    0.02614273  -0.81110164   2.14150743
H   -0.55001021  -1.49968281   1.80964059
H    0.03755378  -0.94387884   3.08938498
O   -2.15030604  -0.78160364  -1.07029667
H   -2.78669528  -0.50366124  -1.72907478
H   -1.29860650  -0.61953178  -1.47597199
