24
Energy:   -287.17449069
O    1.73932667   1.80127162   0.01018052
H    1.40101315   1.66348382   0.89493492
H    2.05762166   0.94048954  -0.26180176
O    0.44921226   1.01251965   2.28641222
H   -0.45791938   1.08803281   1.99036862
H    0.65602741   0.08276231   2.19148796
O    0.82683982  -1.58124915   1.47635676
H    1.41757530  -1.40488087   0.74412887
H   -0.03075260  -1.70278315   1.06892997
O   -2.06102305   0.89786817   1.07608435
H   -2.89294752   0.96199406   1.54514875
H   -2.01002401  -0.01782969   0.80198880
O    2.13412867  -0.82103776  -0.85860611
H    2.85065452  -1.13290435  -1.41138254
H    1.36758435  -0.82962133  -1.43181460
O   -0.69110773   1.74446192  -1.19779046
H    0.17165159   1.94248122  -0.83355625
H   -1.25879977   1.65073013  -0.43282513
O   -0.28626290  -0.69730098  -2.18776766
H   -0.44013748   0.20453320  -1.90625465
H   -0.49956684  -0.69713391  -3.12089854
O   -1.57180212  -1.63071227   0.06388583
H   -1.18221783  -1.39149108  -0.77708335
H   -1.98357140  -2.48002683  -0.09530803
