24
Energy:   -282.43603069
O   -2.31528763  -0.80255471  -1.00361141
H   -1.76372613  -0.02366593  -0.93050854
H   -3.17854300  -0.46390081  -1.24096254
O   -0.35222897  -2.16670211  -2.42578532
H   -0.59143461  -3.08073135  -2.57928792
H   -1.13347278  -1.77680114  -2.03352623
O   -0.96864788  -1.64713027   1.32787327
H   -0.89466030  -0.82055041   1.80486742
H   -1.61389650  -1.47199669   0.64288109
O    1.10915281  -1.11912348  -0.34764665
H    0.85000553  -1.55019947  -1.16204706
H    0.50806147  -1.46816933   0.31044760
O   -0.44753216   1.11387372  -0.54167340
H    0.17108101   0.38558395  -0.59774126
H   -0.58408583   1.24102531   0.39716493
O    2.18045597   0.77877595   1.45220639
H    2.12938601   0.02998086   0.85812758
H    2.23814998   1.53987958   0.87460401
O   -0.39930782   0.93575906   2.21973971
H   -0.50396849   1.41611666   3.04104024
H    0.54769386   0.88721341   2.08911438
O    1.74736375   2.75929052  -0.42065548
H    0.91586152   2.32029270  -0.59986709
H    2.04707967   3.06444803  -1.27697382
