24
Energy:   -282.53161826
O    0.63807816  -1.97321048  -1.44944928
H    0.98699219  -1.75792493  -0.58449669
H    1.38976633  -2.31584964  -1.93297295
O    0.46433637   2.88605283   1.37536997
H   -0.30279725   2.57308805   0.89600486
H    0.17060361   2.94786269   2.28428826
O    1.36485486  -1.13242803   1.06010015
H    1.71056740  -1.53444943   1.85702767
H    0.45735330  -0.91634709   1.27453379
O   -1.55416886   1.70909432  -0.07982003
H   -0.97204319   1.38980133  -0.76932242
H   -2.28360795   2.11329996  -0.54967988
O    2.19750086   1.28124866  -0.03222861
H    1.74541573   1.94510012   0.48849407
H    2.03359874   0.45998121   0.43133123
O    0.23668662   0.74910546  -1.84174893
H    1.01206354   1.03358452  -1.35791616
H    0.30231299  -0.20566142  -1.86032921
O   -1.88586359  -2.49459997  -0.45958303
H   -2.45859548  -2.92202612  -1.09638514
H   -1.04464313  -2.41448476  -0.90920680
O   -1.24429511  -0.59400266   1.42062099
H   -1.61976953  -1.28274526   0.87209164
H   -1.46291256   0.22001613   0.96695628
