24
Energy:   -284.63193995
O    1.77180134  -1.05039157   0.20322541
H    1.18633443  -1.19077031  -0.54092118
H    1.67784183  -0.12062781   0.41045189
O   -0.66061266   2.24602773  -0.98772596
H   -1.32289128   1.58902353  -0.77333296
H    0.00973701   2.14021311  -0.31269527
O   -0.95260939   0.00060823   2.29601728
H   -1.58279319  -0.00807404   3.01645108
H   -0.45900879  -0.81300096   2.39912095
O    0.64397991  -2.18591466   2.37168056
H    1.11928651  -1.87454147   1.60138047
H    1.07227521  -3.01072729   2.60076374
O   -0.12761290  -1.30285555  -1.78278480
H    0.03182202  -0.54850087  -2.35002494
H   -0.30255833  -2.02455513  -2.38675142
O   -2.05051355   0.00727909  -0.26022283
H   -1.46315984  -0.55743103  -0.76256728
H   -1.74138277  -0.06751914   0.64259234
O    0.21416363   0.98240133  -3.20169925
H    0.25061198   1.58188202  -3.94703560
H   -0.07635748   1.52672835  -2.46989503
O    1.02552303   1.48639603   1.08207537
H    0.32586734   1.06503210   1.58124087
H    1.48445509   2.02908839   1.72324479
