120
Energy:   -598.40790541
    C      4.98212349     -2.97113699      0.79847082
    H      5.90526215     -3.22953528      1.27380808
    H      5.02677729     -3.23870303     -0.23657195
    H      4.17881877     -3.49867595      1.26889964
    C      4.74538366     -1.45487709      0.92696276
    N      4.56912010     -0.32595268      1.02263085
    C      1.25055162     -2.02772715     -4.33918293
    H      2.29634328     -2.25333143     -4.35714609
    H      0.78946990     -2.40262039     -5.22899066
    H      0.80116991     -2.48734247     -3.48378307
    C      1.05577975     -0.50195439     -4.26380768
    N      0.91076325      0.63405277     -4.20768738
    C      1.30490703      5.64016331      1.44689406
    H      0.88762258      6.31641522      2.16345336
    H      2.24442029      6.01974553      1.10319178
    H      1.45205620      4.68344511      1.90289460
    C      0.34150140      5.49751022      0.25395664
    N     -0.37579789      5.39129851     -0.63423949
    C     -1.78521076     -0.59670310     -2.23721500
    H     -1.18447125     -1.46514114     -2.40992164
    H     -1.32881401      0.25122816     -2.70370583
    H     -2.76019704     -0.74946981     -2.65069194
    C     -1.90344553     -0.34731832     -0.72214808
    N     -1.99147669     -0.16164003      0.40588811
    C      2.40113931     -4.72797837     -1.70934389
    H      2.63030701     -3.71619153     -1.97139298
    H      1.60418406     -5.08482232     -2.32774814
    H      3.26713486     -5.33918292     -1.85556219
    C      1.97194193     -4.79092902     -0.23170157
    N      1.65238498     -4.83779864      0.86847031
    C      0.56402657      2.10823071     -0.69132817
    H      0.73695121      1.20769350     -1.24271731
    H      1.08203637      2.91859410     -1.16023767
    H     -0.48486070      2.31886552     -0.67215623
    C      1.07921199      1.93485663      0.74954844
    N      1.46279095      1.80577174      1.82234657
    C     -4.14150031     -3.54300687     -3.78393439
    H     -4.44713754     -2.79967503     -4.49029396
    H     -4.71189319     -4.43543668     -3.93598734
    H     -3.10179772     -3.75694093     -3.91865570
    C     -4.37706676     -3.02051120     -2.35456155
    N     -4.55245669     -2.63148943     -1.29032850
    C      1.07097259     -4.05066794      4.49525080
    H      0.46888828     -3.22723795      4.81829523
    H      1.12266454     -4.78206561      5.27453539
    H      0.63557571     -4.48995187      3.62211949
    C      2.48977473     -3.55088432      4.16537682
    N      3.54613740     -3.17877269      3.91977066
    C      0.74797274      3.20182405      4.99556803
    H      0.06864323      4.02800274      5.02455719
    H      0.80957642      2.75648164      5.96653364
    H      0.39711886      2.47609557      4.29192124
    C      2.14200597      3.69821190      4.56910530
    N      3.17992707      4.06779522      4.25158440
    C      4.88497209      3.04136928      1.51184283
    H      4.20949549      2.51317486      2.15187580
    H      5.29755238      3.87574153      2.03957339
    H      5.67425161      2.38603879      1.20773943
    C      4.12737238      3.54388901      0.26881563
    N      3.56330496      3.91803779     -0.65667461
    C      3.88720074      0.75684040     -2.13723726
    H      3.28573836      0.81848462     -1.25443311
    H      3.34781275      1.16639686     -2.96562316
    H      4.79159173      1.30990241     -1.99198427
    C      4.22752609     -0.71733484     -2.42461512
    N      4.48091379     -1.81492531     -2.63858099
    C      1.08743242     -1.53413723      1.71123622
    H      0.64907006     -2.47052587      1.98676288
    H      0.46052594     -0.73445213      2.04648404
    H      2.05247886     -1.44492803      2.16469644
    C      1.23167798     -1.46578077      0.17953109
    N      1.33907536     -1.41488627     -0.96089300
    C     -1.80007005     -3.91249570      0.62927216
    H     -1.70133163     -2.89566387      0.94739784
    H     -1.18398000     -4.53874825      1.24012393
    H     -2.82145935     -4.21760086      0.72186721
    C     -1.35885084     -4.03551475     -0.84103118
    N     -1.03034308     -4.12710802     -1.93573885
    C     -5.37033085      1.07732180     -1.61952713
    H     -6.38097065      1.02479860     -1.27203801
    H     -5.07102387      2.10201887     -1.69239911
    H     -4.72956837      0.56666268     -0.93137758
    C     -5.26876214      0.41308436     -3.00519391
    N     -5.19313961     -0.08147060     -4.03688581
    C     -1.79792364      0.48999863      3.78476054
    H     -2.77069984      0.89556946      3.60004736
    H     -1.10883734      0.87212008      3.06085283
    H     -1.47557829      0.76912856      4.76612645
    C     -1.85355869     -1.04543061      3.68006189
    N     -1.89498151     -2.18862747      3.60210899
    C     -4.89518827     -1.67500968      1.89534575
    H     -4.91086841     -2.03699088      2.90213467
    H     -3.96767432     -1.94335275      1.43425035
    H     -5.70485909     -2.10979252      1.34735293
    C     -5.04222687     -0.14204892      1.89865504
    N     -5.15170378      0.99931005      1.90111896
    C      3.61378979      0.34129376      4.30590680
    H      4.00018605      1.12539626      4.92298167
    H      3.54460722      0.68441244      3.29477752
    H      4.26824133     -0.50398321      4.35172299
    C      2.21531573     -0.06449586      4.80711044
    N      1.17408823     -0.36662468      5.18027933
    C     -2.43799951      0.93369842     -5.94939142
    H     -1.52216963      1.48343226     -5.88655414
    H     -3.11446823      1.28036697     -5.19632430
    H     -2.87511739      1.07810712     -6.91529679
    C     -2.15337716     -0.56429416     -5.73350178
    N     -1.94146288     -1.67961773     -5.57276213
    C     -0.35023274      3.97943091     -3.82087416
    H     -0.21680887      4.91238508     -3.31422361
    H     -0.50874620      4.15933721     -4.86366191
    H      0.52349908      3.37539075     -3.69192733
    C     -1.57164532      3.24710875     -3.23482334
    N     -2.48104251      2.70186162     -2.79848187
    C     -3.16605230      3.36138962      0.51590044
    H     -4.17123585      3.51138386      0.85057632
    H     -3.05981666      2.36473541      0.14134275
    H     -2.94107558      4.06067041     -0.26210403
    C     -2.19603590      3.57350584      1.69304736
    N     -1.47381459      3.73143601      2.56948675
