120
Energy:   -595.25198677
    C      4.78903284     -2.49840754      0.57527647
    H      5.61467795     -2.70189137      1.22474139
    H      5.05734362     -2.74511403     -0.43072767
    H      3.94668833     -3.08661508      0.87421913
    C      4.42689992     -1.00388823      0.65817263
    N      4.15727550      0.10884933      0.71989258
    C      1.22071592     -1.99699627     -4.46580371
    H      2.25604209     -2.26655165     -4.48423746
    H      0.75397096     -2.31168196     -5.37576039
    H      0.74259440     -2.47434688     -3.63608370
    C      1.09052136     -0.46909509     -4.32379182
    N      0.99358559      0.66849678     -4.21805752
    C      1.19325507      5.54995307      2.06443086
    H      0.49276770      5.71138737      2.85699416
    H      1.81068561      6.41658928      1.95209075
    H      1.80538862      4.70354138      2.29633356
    C      0.43177875      5.28849970      0.75164910
    N     -0.13517498      5.09383578     -0.22577659
    C     -1.76573190     -0.61455676     -2.30756893
    H     -1.24986738      0.23382990     -2.70634714
    H     -2.71927553     -0.70845544     -2.78384265
    H     -1.18954841     -1.49842232     -2.48559520
    C     -1.96507500     -0.42834941     -0.79192083
    N     -2.11349499     -0.28970957      0.33654807
    C      2.44239587     -4.71751990     -1.89511274
    H      2.81970135     -3.73418927     -2.08379670
    H      1.61720062     -4.91413047     -2.54726009
    H      3.21539569     -5.43605298     -2.07140959
    C      1.97447962     -4.81565834     -0.43120590
    N      1.62609470     -4.88872687      0.65873928
    C      1.08025940      1.84470300     -0.69954182
    H      0.12085090      1.53502358     -1.05805844
    H      1.82585442      1.15367936     -1.03341827
    H      1.30399812      2.82066677     -1.07681467
    C      1.06597445      1.88030917      0.83998023
    N      1.05533866      1.90681958      1.98622438
    C     -4.14649492     -3.32690009     -4.03677688
    H     -4.42697192     -2.50377108     -4.66022813
    H     -4.73348474     -4.18420514     -4.29245264
    H     -3.10982763     -3.54796783     -4.18289010
    C     -4.39001754     -2.95953920     -2.56119472
    N     -4.57133120     -2.68602232     -1.46255673
    C      1.09327218     -4.22893098      4.24976241
    H      0.44676957     -3.44714262      4.58997048
    H      1.21024016     -4.95753645      5.02458603
    H      0.66714218     -4.69316388      3.38500804
    C      2.46871729     -3.63732517      3.88954954
    N      3.49279869     -3.19684776      3.62135468
    C      0.45265916      2.92263248      5.38334318
    H     -0.18018772      3.75946587      5.59337860
    H      0.51369670      2.29566189      6.24826016
    H      0.04616769      2.36430822      4.56606856
    C      1.86068354      3.42415737      5.01247912
    N      2.90902168      3.79756545      4.73635398
    C      4.57522068      3.29082698      1.79164169
    H      3.77774133      2.82076353      2.32826746
    H      4.91076512      4.15091634      2.33252552
    H      5.38553179      2.60096121      1.68037523
    C      4.07381849      3.72237301      0.40097140
    N      3.70050177      4.04367865     -0.63444585
    C      4.26384509      1.15246757     -2.69963736
    H      4.37169608      1.46315509     -1.68143226
    H      3.32170090      1.49049093     -3.07779554
    H      5.05465068      1.57152595     -3.28608061
    C      4.32643487     -0.38432471     -2.77678668
    N      4.37303581     -1.52853641     -2.83422786
    C      0.89440561     -1.58345070      1.57755727
    H      0.46553083     -2.52082849      1.86441870
    H      0.23087086     -0.78941599      1.84982477
    H      1.83153308     -1.45223029      2.07702940
    C      1.11789612     -1.56600309      0.05396035
    N      1.28429496     -1.55301256     -1.08042682
    C     -1.84959207     -4.06606299      0.41048284
    H     -1.80168904     -3.05336071      0.75259333
    H     -1.20322410     -4.67509905      1.00729321
    H     -2.85454192     -4.42373292      0.49442986
    C     -1.40244596     -4.13226335     -1.06168491
    N     -1.06952535     -4.18155254     -2.15778071
    C     -5.23175467      1.25469930     -1.43420887
    H     -6.25482262      1.34832529     -1.13509966
    H     -4.77362008      2.22159028     -1.44576803
    H     -4.71433680      0.62310155     -0.74264389
    C     -5.16336776      0.63737514     -2.84340514
    N     -5.11245059      0.17774924     -3.89261581
    C     -1.97020091      0.26736192      3.79882547
    H     -2.96336669      0.64742695      3.68019795
    H     -1.32727314      0.71601366      3.07063965
    H     -1.61415851      0.50007546      4.78064894
    C     -1.97855491     -1.26030699      3.60451149
    N     -1.98477485     -2.39772593      3.45983590
    C     -4.98937553     -1.99259990      1.76678306
    H     -4.99697558     -2.46025912      2.72914332
    H     -4.05644128     -2.19025965      1.28153734
    H     -5.78967136     -2.38362149      1.17388526
    C     -5.16933763     -0.47225645      1.93342467
    N     -5.30332759      0.65970836      2.05749692
    C      3.46608779      0.28800466      4.18223432
    H      3.87259104      0.99588632      4.87401379
    H      3.34516057      0.75275650      3.22605368
    H      4.13134788     -0.54519976      4.09224265
    C      2.09759212     -0.20052037      4.69229600
    N      1.07868490     -0.56424945      5.07206011
    C     -2.37169732      1.24384721     -5.81795180
    H     -1.43761748      1.76244476     -5.75920138
    H     -2.98791414      1.52398083     -4.98927750
    H     -2.86513397      1.50027268     -6.73209913
    C     -2.11900212     -0.27479228     -5.77949113
    N     -1.93085905     -1.40548842     -5.75085541
    C     -0.08046514      4.06718644     -3.55616798
    H     -0.42322867      4.85918149     -4.18874777
    H      0.52051775      3.38999166     -4.12636608
    H      0.50264856      4.47566902     -2.75740676
    C     -1.29135798      3.31404899     -2.97468496
    N     -2.19292274      2.75330392     -2.54174441
    C     -2.68648422      3.02291113      0.85447197
    H     -3.44670682      2.28982682      1.02637072
    H     -1.87058737      2.57385938      0.32762859
    H     -3.08939247      3.82463223      0.27154202
    C     -2.18672596      3.57042529      2.20431267
    N     -1.81463322      3.97807447      3.20933043
