120
Energy:   -594.82496920
    C      5.04269733     -2.76524313      0.11943312
    H      6.00108273     -2.94732271      0.55902911
    H      5.06149350     -3.05601343     -0.91012914
    H      4.29892444     -3.33412376      0.63719351
    C      4.70676272     -1.26592728      0.22335578
    N      4.45664413     -0.14961848      0.30073092
    C      0.70908707     -2.40742952     -4.41334926
    H      1.06243306     -1.39971501     -4.34583449
    H      1.33877502     -2.96247933     -5.07690926
    H      0.72844679     -2.85794127     -3.44300733
    C     -0.73361306     -2.41052817     -4.95205766
    N     -1.80776889     -2.41283526     -5.35315054
    C      1.51461032      5.60925618      1.60255526
    H      2.13055619      6.45934060      1.39551097
    H      2.11737951      4.72521849      1.60932027
    H      1.04873973      5.73061427      2.55813671
    C      0.43107516      5.48345835      0.51548284
    N     -0.37566603      5.38979615     -0.29389199
    C     -1.89414886     -0.61295448     -2.12929699
    H     -2.14613864     -1.62972531     -2.34742174
    H     -0.90642017     -0.40610542     -2.48497183
    H     -2.59123679      0.03892536     -2.61305333
    C     -1.94977748     -0.38549183     -0.60720428
    N     -1.99119552     -0.21613555      0.52606292
    C      2.32836005     -4.82950200     -1.84010198
    H      1.47449264     -5.12968932     -2.41080174
    H      3.13477466     -5.50928132     -2.02036470
    H      2.62228435     -3.84245094     -2.13033945
    C      1.97362468     -4.83969831     -0.34154973
    N      1.70950808     -4.84728993      0.77419054
    C      0.43538511      2.10151368     -0.68884248
    H     -0.61972052      2.24114643     -0.57859279
    H      0.62042424      1.20864546     -1.24870493
    H      0.85401905      2.93972612     -1.20560608
    C      1.08511168      1.97921013      0.70201957
    N      1.56886264      1.88814957      1.73757958
    C     -4.45091643     -3.44564773     -3.48309911
    H     -4.46974004     -2.58347809     -4.11651002
    H     -5.27128950     -4.08699624     -3.72918691
    H     -3.53079822     -3.97288462     -3.62558711
    C     -4.56738314     -3.00463729     -2.01219963
    N     -4.65409790     -2.67628497     -0.91704810
    C      1.62007649     -4.01778599      4.33530788
    H      1.06144636     -3.18520304      4.70898982
    H      1.79456890     -4.71489642      5.12808058
    H      1.06708405     -4.49673988      3.55447396
    C      2.96884579     -3.52342871      3.78030134
    N      3.97306584     -3.15535724      3.36707375
    C      1.33117635      3.16651649      5.03781125
    H      0.69687773      4.01126299      5.20801349
    H      1.51550612      2.66623418      5.96551769
    H      0.85296066      2.49262374      4.35804850
    C      2.66707061      3.64064821      4.43599264
    N      3.66170460      3.99366083      3.98791132
    C      4.94068895      3.12937472      0.91021106
    H      4.33790724      2.65292878      1.65489466
    H      5.38461629      4.01174705      1.32160707
    H      5.71058605      2.45813682      0.59146788
    C      4.06124261      3.51122565     -0.29492960
    N      3.40645483      3.79553103     -1.19221160
    C      3.18784257      0.70008748     -2.92619971
    H      2.22904997      0.79115436     -3.39237966
    H      3.87158569      1.38695763     -3.37963530
    H      3.09962509      0.92097613     -1.88297156
    C      3.71067639     -0.73747741     -3.10410977
    N      4.09994994     -1.80780981     -3.23657190
    C      1.23570216     -1.50325596      1.55551052
    H      0.83309672     -2.42887349      1.91053336
    H      0.63951292     -0.69234630      1.91866754
    H      2.24017590     -1.39292692      1.90730463
    C      1.22752853     -1.49695368      0.01554511
    N      1.22144289     -1.49226135     -1.13102914
    C     -1.72130180     -3.94549393      0.74310696
    H     -1.07289840     -4.59053065      1.29844545
    H     -2.73897318     -4.22513320      0.91930551
    H     -1.57036975     -2.93326970      1.05539004
    C     -1.40706070     -4.07149815     -0.75921640
    N     -1.17309392     -4.16531402     -1.87776442
    C     -5.51627367      0.88609721     -0.96487650
    H     -5.89027957      0.07740755     -0.37238954
    H     -6.20061030      1.70741628     -0.91996047
    H     -4.56384667      1.19435348     -0.58704059
    C     -5.36383420      0.42426089     -2.42606417
    N     -5.25033608      0.08040275     -3.51398481
    C     -1.37385310      0.46608467      3.94621896
    H     -2.36554387      0.86789142      3.94525202
    H     -0.82549002      0.86770414      3.11984204
    H     -0.88375684      0.72808608      4.86058213
    C     -1.44116502     -1.06733742      3.82097598
    N     -1.49128180     -2.20903987      3.72772689
    C     -4.64778686     -1.75948134      2.32279887
    H     -4.53147926     -2.17835154      3.30051073
    H     -3.79389716     -2.00396914      1.72614389
    H     -5.52863520     -2.15967639      1.86579863
    C     -4.77638282     -0.22875727      2.43210075
    N     -4.87212836      0.91093638      2.51348097
    C      4.09580000      0.35554942      3.77549807
    H      4.74135609     -0.49521424      3.70947751
    H      4.57179074      1.12051617      4.35269628
    H      3.89159745      0.72546489      2.79246045
    C      2.77550763     -0.05336964      4.45462490
    N      1.79248994     -0.35782847      4.96026569
    C     -2.73766292      0.97301672     -5.66468879
    H     -3.38038057      1.64823447     -5.13943153
    H     -3.09235780     -0.02848242     -5.53784199
    H     -2.73404157      1.22096266     -6.70555804
    C     -1.30734397      1.08576141     -5.10515653
    N     -0.24240650      1.16970496     -4.68855934
    C     -1.06845832      4.45649597     -3.43920633
    H     -1.13298218      5.41402520     -2.96605242
    H     -1.30452807      4.55540688     -4.47814175
    H     -0.07511350      4.07293589     -3.33410249
    C     -2.06550400      3.48804997     -2.77617370
    N     -2.80784982      2.76699790     -2.28251577
    C     -3.02800856      3.35731863      1.09325444
    H     -4.01761425      3.44660582      1.49025390
    H     -2.88331894      2.36676511      0.71540827
    H     -2.89652756      4.06409928      0.30074390
    C     -2.00119356      3.63723312      2.20631276
    N     -1.23668311      3.84564218      3.03503528
