120
Energy:   -594.26159725
    C      4.46898203     -3.18809895      1.12597567
    H      5.04125817     -3.68531421      1.88107645
    H      4.85291748     -3.44455778      0.16071844
    H      3.44568995     -3.49299546      1.19533371
    C      4.56552794     -1.66454588      1.32862052
    N      4.63741076     -0.53019136      1.47949881
    C      1.78394343     -1.76716581     -4.34216989
    H      2.27371354     -2.11393444     -3.45629352
    H      2.41302620     -1.94310543     -5.18963623
    H      0.86051383     -2.29280362     -4.46819269
    C      1.50267951     -0.25832847     -4.21607274
    N      1.29326573      0.86506951     -4.12218768
    C      1.18141087      5.65623007      1.60979933
    H      0.51648257      5.78988908      2.43738970
    H      1.81715477      6.51231241      1.52118890
    H      1.77901533      4.78320834      1.76980265
    C      0.36330942      5.48824077      0.31593318
    N     -0.24580429      5.36316510     -0.64740898
    C     -1.47414000     -0.70446673     -2.36010582
    H     -2.39820649     -0.85473976     -2.87819783
    H     -0.87852269     -1.59070792     -2.42877646
    H     -0.94664155      0.11490968     -2.80199583
    C     -1.76062268     -0.39195003     -0.87961233
    N     -1.97392205     -0.15926715      0.22268238
    C      2.21478690     -4.72611811     -1.73454073
    H      2.75190173     -3.80194707     -1.68641861
    H      2.67077073     -5.36626971     -2.46061495
    H      2.23640364     -5.20153027     -0.77620098
    C      0.75435269     -4.45065516     -2.13809008
    N     -0.33300696     -4.24556048     -2.43855092
    C      0.70211093      2.10261538     -0.68279882
    H     -0.34346684      2.31782928     -0.75594449
    H      0.91132914      1.17747415     -1.17801647
    H      1.26132262      2.88904773     -1.14508179
    C      1.10099741      1.99250516      0.80056402
    N      1.39798652      1.91052309      1.90499508
    C     -3.53366264     -3.64857576     -4.07690977
    H     -3.85876029     -2.95707939     -4.82593878
    H     -3.97291031     -4.60668319     -4.26127551
    H     -2.46746027     -3.73304907     -4.10814853
    C     -3.96811190     -3.14327582     -2.68855614
    N     -4.29157912     -2.76705705     -1.65486375
    C      0.46927234     -3.82644426      4.90678507
    H     -0.04221665     -2.94976670      5.24548205
    H      0.51967476     -4.53983832      5.70266672
    H     -0.06046937     -4.25138506      4.07992467
    C      1.89532691     -3.44985269      4.46390005
    N      2.95708937     -3.16946314      4.13415203
    C      0.38440585      3.31230920      4.98116691
    H     -0.26100475      4.16368364      4.92194782
    H      0.33118719      2.89205359      5.96374113
    H      0.07679587      2.58092578      4.26328565
    C      1.83264072      3.74446649      4.68543760
    N      2.91091742      4.06622723      4.46525369
    C      4.89201533      2.93951549      1.90606194
    H      4.15205306      2.50614713      2.54602122
    H      5.38611305      3.73680449      2.42093745
    H      5.60850956      2.19327033      1.63283442
    C      4.21465921      3.48977799      0.63720424
    N      3.71033679      3.89947343     -0.30751800
    C      4.14970539      0.70734827     -1.69210523
    H      5.05769789      1.24519157     -1.51554259
    H      3.53302955      0.75218686     -0.81883580
    H      3.63030795      1.14589878     -2.51842166
    C      4.47797177     -0.76246562     -2.01380125
    N      4.72238102     -1.85680886     -2.25331855
    C      0.97165862     -1.36749794      1.83070600
    H      0.27289758     -0.58043610      2.02349307
    H      1.87979258     -1.17661132      2.36339174
    H      0.55742407     -2.29943818      2.15442845
    C      1.26650673     -1.43371550      0.32064646
    N      1.48603456     -1.48301748     -0.80366151
    C     -2.01799226     -4.11161901      0.58002871
    H     -2.71175737     -4.30299031      1.37184130
    H     -2.30599448     -4.66643608     -0.28837893
    H     -2.01717989     -3.06633123      0.35139827
    C     -0.60614788     -4.54209935      1.01932604
    N      0.44503443     -4.86261153      1.34640287
    C     -5.12807102      0.93075438     -2.05391893
    H     -4.81739915      1.95330463     -2.10658907
    H     -4.54663116      0.41890298     -1.31578959
    H     -6.16319876      0.88579191     -1.78673354
    C     -4.92223452      0.26044092     -3.42501748
    N     -4.76897988     -0.23863791     -4.44586266
    C     -2.09583271      0.51728636      3.62859596
    H     -3.05818066      0.92255172      3.39504385
    H     -1.36628510      0.92182613      2.95851615
    H     -1.83610972      0.77221069      4.63480501
    C     -2.13458127     -1.01513087      3.48096131
    N     -2.16343134     -2.15608515      3.37104061
    C     -5.01292255     -1.65934726      1.43375715
    H     -5.13905199     -2.05097481      2.42149164
    H     -4.04230610     -1.92131731      1.06745879
    H     -5.76070259     -2.07110528      0.78863743
    C     -5.15210856     -0.12602885      1.46784387
    N     -5.25573888      1.01559640      1.49322299
    C      3.29386082      0.35391094      4.57727615
    H      3.68469033      1.14599383      5.18122744
    H      3.30465063      0.65060097      3.54928894
    H      3.89710806     -0.52092942      4.70236093
    C      1.84760157      0.04600743      5.00754306
    N      0.77079582     -0.18324073      5.32789633
    C     -1.99993969      1.00739168     -6.17309191
    H     -2.74289992      1.32178831     -5.47019432
    H     -2.37864299      1.12139869     -7.16731790
    H     -1.12125403      1.60649187     -6.05523792
    C     -1.65023256     -0.47144836     -5.92341803
    N     -1.38985970     -1.57251199     -5.73752447
    C     -0.10110659      4.07123558     -3.85767260
    H      0.54610487      4.29755650     -3.03621271
    H     -0.46968517      4.98143484     -4.28262699
    H      0.44257725      3.52542396     -4.60023347
    C     -1.28463008      3.22105533     -3.35961066
    N     -2.16581712      2.58805748     -2.98878092
    C     -3.15900536      3.34448191      0.20552009
    H     -4.19583649      3.48396585      0.43007659
    H     -3.00178416      2.34706102     -0.14850271
    H     -2.86051247      4.04196482     -0.54901201
    C     -2.32262971      3.57541622      1.47781924
    N     -1.69991002      3.74735731      2.42510379
