120
Energy:   -594.17913381
    C      5.00095728     -2.72649060      0.92550403
    H      5.87544711     -2.88650780      1.52095529
    H      5.20681649     -2.99443056     -0.08974434
    H      4.20016270     -3.33030080      1.29838519
    C      4.59860712     -1.24151421      0.99302804
    N      4.29903914     -0.13588180      1.04330273
    C      1.36943383     -2.00929713     -4.33637301
    H      1.54064890     -1.02380168     -3.95639367
    H      2.17006447     -2.28313169     -4.99128086
    H      1.32166776     -2.70211194     -3.52235512
    C      0.03944756     -2.03642143     -5.11226011
    N     -0.95078768     -2.05661671     -5.68994332
    C      1.20208529      5.62612162      1.94614863
    H      0.57618565      5.86546543      2.78033347
    H      1.92407833      6.40352303      1.80732428
    H      1.70580436      4.70061092      2.13214902
    C      0.33880221      5.49481187      0.67764555
    N     -0.30395128      5.39704580     -0.26681265
    C     -1.61308959     -0.65098685     -2.38613384
    H     -1.02371378     -1.53248153     -2.52932414
    H     -1.09867638      0.19260140     -2.79678821
    H     -2.55573515     -0.76830736     -2.87863191
    C     -1.84501613     -0.42757569     -0.88017982
    N     -2.01769598     -0.26123592      0.24107141
    C      2.67947962     -4.72835464     -1.60539033
    H      3.59436689     -5.28114248     -1.65342229
    H      2.86545838     -3.70748885     -1.86643447
    H      1.97256494     -5.14846214     -2.28999271
    C      2.11248317     -4.79739634     -0.17523360
    N      1.69032854     -4.84880103      0.88958309
    C      0.41505045      2.10890510     -0.51168444
    H     -0.64016984      2.25933235     -0.60539651
    H      0.69634345      1.21905956     -1.03508511
    H      0.93323251      2.94696721     -0.92886349
    C      0.78313308      1.96693149      0.97692520
    N      1.05718733      1.86122569      2.08526275
    C     -3.66691539     -3.64665056     -4.25962283
    H     -3.76941144     -2.85139368     -4.96811505
    H     -4.31258495     -4.45446397     -4.53429974
    H     -2.65280859     -3.98783351     -4.25064022
    C     -4.04967259     -3.13752925     -2.85751997
    N     -4.33465272     -2.75846529     -1.81359067
    C      0.91529201     -4.14257876      4.40891360
    H      0.27164070     -3.32959248      4.67285768
    H      0.95194338     -4.84481718      5.21539792
    H      0.53810346     -4.62592199      3.53198303
    C      2.33179025     -3.60631900      4.13042085
    N      3.38643758     -3.20704923      3.92307034
    C      0.44916009      3.03482380      5.39559005
    H     -0.20033598      3.87064208      5.55199607
    H      0.55034504      2.48601429      6.30853518
    H      0.03624845      2.39859104      4.64086431
    C      1.83260476      3.53744619      4.94276385
    N      2.86264220      3.91167141      4.60561416
    C      4.50766244      3.16581163      1.68704060
    H      3.77874754      2.66349557      2.28809121
    H      4.83545630      4.05158438      2.18988939
    H      5.34356469      2.51795943      1.52439359
    C      3.88190139      3.54634417      0.33233838
    N      3.41599385      3.82966794     -0.67629899
    C      3.72105704      0.75339089     -2.29185242
    H      3.15101314      0.83871992     -1.39037082
    H      3.10108207      0.99421822     -3.13002444
    H      4.54966932      1.42937781     -2.25521281
    C      4.24121329     -0.68894886     -2.43570481
    N      4.62849326     -1.76283637     -2.54280946
    C      0.97027319     -1.56055579      1.67949602
    H      0.53633180     -2.50601626      1.92989477
    H      0.30678329     -0.77441585      1.97388392
    H      1.90358644     -1.44982340      2.19092911
    C      1.20648092     -1.49062505      0.15932642
    N      1.38234831     -1.43855844     -0.97250894
    C     -1.73917801     -4.03144132      0.33132897
    H     -1.67638340     -3.02030964      0.67566855
    H     -1.17908035     -4.66644145      0.98551895
    H     -2.76297295     -4.34235721      0.32270835
    C     -1.16217682     -4.12530327     -1.09340243
    N     -0.73257322     -4.19518776     -2.15417972
    C     -5.18020525      1.17004893     -1.89811199
    H     -5.66919018      1.66254076     -1.08371300
    H     -4.92333536      0.17234358     -1.60914662
    H     -5.83696789      1.13897677     -2.74226627
    C     -3.90088358      1.94190078     -2.27118140
    N     -2.94837044      2.51657956     -2.54894853
    C     -2.06443884      0.35588417      3.68742866
    H     -3.05348959      0.74205294      3.55494294
    H     -1.40741087      0.80503904      2.97225508
    H     -1.72305992      0.58117589      4.67616683
    C     -2.07790469     -1.17061181      3.48438018
    N     -2.08793063     -2.30715746      3.33320136
    C     -4.96879831     -1.85785913      1.37580048
    H     -5.08310163     -2.30426038      2.34149238
    H     -4.00457332     -2.10245952      0.98166863
    H     -5.72734096     -2.22953425      0.71901303
    C     -5.10031602     -0.32839627      1.49846443
    N     -5.19823694      0.81035836      1.58979332
    C      3.34940671      0.30188933      4.38302522
    H      3.72715820      1.02496680      5.07538565
    H      3.28436332      0.74050788      3.40922739
    H      4.00874513     -0.54024059      4.35157479
    C      1.95038387     -0.15804778      4.83335060
    N      0.90874777     -0.50049186      5.16863832
    C     -2.30043858      1.18785940     -5.96975144
    H     -2.47250601      1.33697505     -7.01524534
    H     -1.39180900      0.63973734     -5.83244312
    H     -2.22147637      2.13711411     -5.48233010
    C     -3.47418612      0.39591180     -5.36416437
    N     -4.34809452     -0.19372919     -4.91327728
    C      0.09940301      4.23607311     -3.50547878
    H     -0.81787126      4.27440969     -2.95589857
    H      0.00300804      4.81359948     -4.40106261
    H      0.89091879      4.63591219     -2.90670455
    C      0.41913848      2.77421888     -3.86928013
    N      0.65719607      1.68580195     -4.14014678
    C     -3.06142072      3.32495140      0.88063804
    H     -2.90540034      2.28594471      0.67809687
    H     -2.70966387      3.90621751      0.05402089
    H     -4.10573236      3.50710257      1.02601076
    C     -2.28921084      3.72159484      2.15263093
    N     -1.71426549      4.01691391      3.09968744
