120
Energy:   -593.39792646
    C      5.20294748     -5.34745250      1.51232655
    H      5.79383085     -4.78216305      0.82225056
    H      5.59718640     -6.33909087      1.59060872
    H      5.22842485     -4.87664724      2.47284329
    C      3.74843684     -5.41143649      1.01042532
    N      2.66548755     -5.45907549      0.63673704
    C      0.68734723     -1.73873746     -4.66963734
    H      0.65483357     -2.80781225     -4.70000423
    H      1.69314465     -1.40796309     -4.82410078
    H      0.05892119     -1.34080090     -5.43880981
    C      0.19100905     -1.24886710     -3.29658402
    N     -0.17853729     -0.88413634     -2.27428341
    C      0.01613620      5.95783423     -1.52353878
    H     -0.14332117      7.00747893     -1.39042400
    H      1.05907815      5.77172696     -1.67365624
    H     -0.31812560      5.43307299     -0.65302526
    C     -0.77433547      5.47024892     -2.75195853
    N     -1.36287756      5.10721948     -3.66657288
    C      0.85802027      2.26530637     -3.74865817
    H      0.53015290      3.04220389     -4.40731849
    H      0.00863340      1.80862102     -3.28510716
    H      1.39862782      1.52938170     -4.30638342
    C      1.77431719      2.86362266     -2.66513726
    N      2.45654190      3.30909633     -1.85840669
    C      1.19682229     -3.80145287      3.47646743
    H      0.82511821     -2.91062307      3.01477649
    H      0.58565030     -4.04798743      4.31943161
    H      1.17260038     -4.60558532      2.77100064
    C      2.64629311     -3.57140637      3.94306464
    N      3.72549002     -3.40012630      4.29046747
    C     -2.65310833      0.50427564     -0.65185312
    H     -3.52195465      0.69132276     -0.05601789
    H     -2.05448373     -0.24859607     -0.18309747
    H     -2.95203468      0.16886429     -1.62295628
    C     -1.83395910      1.80138401     -0.78640579
    N     -1.22406526      2.76714015     -0.88658636
    C     -3.16954179     -2.67775121     -3.37396539
    H     -2.49259370     -3.44201013     -3.69419931
    H     -2.76867931     -1.71803436     -3.62526586
    H     -4.11264112     -2.80926931     -3.86198766
    C     -3.36342563     -2.76977694     -1.84899316
    N     -3.50778097     -2.83829428     -0.71358201
    C      2.36037597      0.00876210      4.52638278
    H      1.67072870     -0.63582872      4.02260754
    H      1.81931338      0.71656441      5.11897561
    H      2.99629561     -0.57422929      5.15933328
    C      3.21643076      0.75685795      3.48757443
    N      3.85380247      1.31384931      2.71413439
    C      1.50567654      3.98685595      1.40965544
    H      0.97784603      3.70855832      0.52148565
    H      2.53195686      3.69769016      1.32003995
    H      1.44413475      5.04662175      1.54384988
    C      0.87685446      3.27830729      2.62379776
    N      0.40866784      2.75076061      3.52778192
    C      5.04042270      0.79769921     -1.12601051
    H      5.30739526      1.80941976     -1.34972320
    H      5.92510586      0.19781821     -1.07725012
    H      4.53328410      0.76250095     -0.18448482
    C      4.11279821      0.25561636     -2.22930511
    N      3.42213961     -0.14798896     -3.05075809
    C      3.24408697     -3.42638448     -2.25247265
    H      2.94624185     -4.43065229     -2.03421903
    H      3.23559849     -3.27401635     -3.31153402
    H      2.56333998     -2.74362971     -1.78843757
    C      4.66474765     -3.18294183     -1.71020067
    N      5.72249411     -3.00168772     -1.30645454
    C      1.45868211      0.53960330      0.12805007
    H      2.26477242      1.04504484      0.61758806
    H      0.92024691      1.23429665     -0.48218577
    H      1.84974381     -0.24526115     -0.48510377
    C      0.51062060     -0.05807679      1.18424982
    N     -0.19525428     -0.50307678      1.97063854
    C     -0.09340727     -3.54622667      0.00748886
    H      0.90491724     -3.25085296      0.25447614
    H     -0.42131180     -4.30143833      0.69088702
    H     -0.74296544     -2.69856346      0.07412501
    C     -0.12343275     -4.10440610     -1.42747951
    N     -0.14578808     -4.51999605     -2.49587868
    C     -6.31417312     -0.35270250     -0.16922259
    H     -5.79076540     -1.14805107      0.31900398
    H     -7.36753464     -0.53255694     -0.11462409
    H     -6.08511967      0.57427129      0.31363681
    C     -5.88110081     -0.28328834     -1.64544414
    N     -5.55865879     -0.23160635     -2.74455818
    C     -1.63279665      0.56492024      5.04306804
    H     -1.05017823      1.24544860      5.62816385
    H     -2.66065987      0.63587461      5.33179244
    H     -1.53560199      0.81208013      4.00655259
    C     -1.13186374     -0.87238118      5.27722797
    N     -0.75889643     -1.94251741      5.45157068
    C     -2.82091118     -2.73918081      2.65504638
    H     -2.96531399     -3.13069475      3.64032038
    H     -1.77320502     -2.66167952      2.45205758
    H     -3.27508315     -3.39394319      1.94096436
    C     -3.46732576     -1.34486648      2.55688463
    N     -3.94861080     -0.30673608      2.48379874
    C      5.76770680     -1.56727868      1.97621579
    H      6.47184877     -1.96362078      1.27479067
    H      5.88884772     -2.05810264      2.91925122
    H      5.93622435     -0.51747563      2.09627604
    C      4.33737450     -1.80135482      1.45567964
    N      3.27242709     -1.97563514      1.06811681
    C     -3.54635254      2.46813271     -4.01281588
    H     -3.03805765      2.94782595     -3.20261166
    H     -4.46830656      2.05472772     -3.66068496
    H     -3.74732923      3.18442953     -4.78185835
    C     -2.66173484      1.34179321     -4.57886434
    N     -2.00309675      0.50318226     -5.00031314
    C     -4.11574011      5.42304172     -1.38817511
    H     -4.81722416      6.17865366     -1.10204417
    H     -4.00621222      5.42271046     -2.45255410
    H     -3.16889692      5.62434654     -0.93225470
    C     -4.62651308      4.04627125     -0.92426345
    N     -5.00680677      3.02120305     -0.57886012
    C     -2.90816492      2.95686699      2.41124142
    H     -3.04395437      3.01801458      3.47082736
    H     -2.20476070      2.18269795      2.18588858
    H     -3.84474411      2.73490885      1.94385176
    C     -2.37713101      4.30254107      1.88326012
    N     -1.98175212      5.30445659      1.49015404
