120
Energy:   -592.89433110
    C      4.92183843     -5.26394108      2.03239221
    H      5.61405931     -4.72768078      1.41744888
    H      5.26713624     -6.26780717      2.16626303
    H      4.84461386     -4.78327494      2.98522773
    C      3.53973026     -5.28273827      1.35340496
    N      2.51068791     -5.29673364      0.84786808
    C      1.09206845     -1.65678190     -4.64039070
    H      1.01473702     -2.72381904     -4.65914672
    H      2.06393583     -1.36361236     -4.97865762
    H      0.34821284     -1.23392152     -5.28286017
    C      0.87520101     -1.15159301     -3.20186621
    N      0.71373335     -0.77545692     -2.13081934
    C      0.85949973      5.58722361     -1.17649386
    H      1.13466502      6.08349905     -2.08362943
    H      0.82094598      6.29871032     -0.37824618
    H     -0.10181725      5.13281274     -1.29599076
    C      1.90253568      4.50295901     -0.84778992
    N      2.67912335      3.69567473     -0.60305490
    C      1.43405590      2.34951775     -3.83344486
    H      1.24821154      1.55447367     -4.52501334
    H      1.28942645      1.99441386     -2.83450410
    H      2.44085932      2.69338173     -3.94747784
    C      0.46064508      3.50996603     -4.11170942
    N     -0.26410352      4.37397253     -4.31889003
    C      0.59384887     -3.89648478      3.48590112
    H      0.29670544     -3.01070260      2.96436887
    H     -0.11756883     -4.11299886      4.25525514
    H      0.63795485     -4.71644636      2.79988599
    C      1.98194582     -3.67959844      4.11657314
    N      3.01544709     -3.51811671      4.58613712
    C     -2.33520729      0.28332628     -1.20862667
    H     -3.23139132      0.42899025     -0.64246736
    H     -1.73665313     -0.47048642     -0.74129548
    H     -2.58690911     -0.02585105     -2.20157917
    C     -1.54457887      1.60359239     -1.26697118
    N     -0.95592007      2.58659053     -1.31041132
    C     -2.78742695     -2.71592425     -3.91624454
    H     -2.45554981     -3.67523703     -4.25458867
    H     -1.98090340     -2.01586408     -3.98208228
    H     -3.59945552     -2.38311948     -4.52841254
    C     -3.25715963     -2.82178459     -2.45345789
    N     -3.60689697     -2.90060242     -1.36434674
    C      1.45990508     -0.30894590      5.09091333
    H      0.88605626     -0.84952047      4.36746545
    H      0.81339686      0.33408455      5.65076873
    H      1.93851762     -0.99875562      5.75423201
    C      2.52746457      0.53640609      4.37167989
    N      3.32231114      1.16580908      3.83617790
    C      1.76271333      4.27683736      2.94092385
    H      2.48668520      3.67257372      2.43532484
    H      2.24667422      4.84953699      3.70426917
    H      1.29771863      4.93795432      2.23977952
    C      0.69343599      3.37075008      3.57908670
    N     -0.10268960      2.69612692      4.05422795
    C      4.48885446      0.63395059     -0.95081246
    H      4.55160801      1.69783366     -0.85534001
    H      5.41606950      0.19344990     -0.64893416
    H      3.69989113      0.26594292     -0.32871414
    C      4.19955663      0.26640127     -2.41805963
    N      3.98416125     -0.00725590     -3.51049184
    C      3.41816862     -3.26832833     -1.87025663
    H      3.50541191     -2.93170849     -2.88217356
    H      2.63663118     -2.72620260     -1.38015661
    H      3.18778007     -4.31318532     -1.86055752
    C      4.74902282     -3.02925161     -1.13318851
    N      5.73990427     -2.85124812     -0.58440780
    C      1.16518863      1.11707363      0.87283238
    H      2.08507490      1.09066360      1.41873708
    H      0.75974072      2.10676399      0.90483352
    H      1.34593581      0.83840073     -0.14430624
    C      0.16463933      0.13174893      1.50500036
    N     -0.58031509     -0.60187009      1.97567815
    C     -0.21631008     -3.45929021     -0.08864402
    H      0.71756437     -3.03676566      0.21836037
    H     -0.47216641     -4.26954106      0.56168681
    H     -0.97905010     -2.71029980     -0.04238263
    C     -0.09437366     -3.97924139     -1.53307549
    N     -0.00358646     -4.36636868     -2.60852038
    C     -6.15900251     -0.09891008     -1.07718437
    H     -5.83975942     -0.97807469     -0.55751754
    H     -7.22787028     -0.07973380     -1.12249491
    H     -5.80836555      0.76894576     -0.55874531
    C     -5.58475740     -0.11023342     -2.50607007
    N     -5.15720582     -0.11866416     -3.56994042
    C     -2.49405059      0.40747221      4.80535815
    H     -2.12765929      1.01751375      5.60442443
    H     -3.56157825      0.47049242      4.76913308
    H     -2.08483816      0.75061036      3.87815780
    C     -2.07389762     -1.05509858      5.04191288
    N     -1.76107464     -2.14404903      5.21803863
    C     -3.30606609     -2.81804038      2.11856126
    H     -3.71771581     -3.23809030      3.01243080
    H     -2.23884614     -2.79736614      2.19281245
    H     -3.59365089     -3.41519268      1.27855936
    C     -3.83569096     -1.38378247      1.93416561
    N     -4.23002076     -0.31591227      1.79687467
    C      5.22898841     -1.47039868      2.66457166
    H      6.00795455     -1.88446225      2.05904437
    H      5.19857958     -1.98062075      3.60459711
    H      5.41979700     -0.43049927      2.82919364
    C      3.87700133     -1.63679637      1.94621051
    N      2.87038550     -1.76068702      1.41135798
    C     -3.37527945      2.54670107     -4.86213698
    H     -2.90086733      3.49442268     -4.71497352
    H     -4.10580907      2.39074454     -4.09604095
    H     -3.85343544      2.53199180     -5.81924176
    C     -2.31847262      1.42831959     -4.79903240
    N     -1.53163189      0.59563375     -4.75204817
    C     -3.07266585      5.29165844     -1.96745565
    H     -2.77451387      5.78583159     -1.06645705
    H     -3.63433822      5.96875220     -2.57652649
    H     -2.20353236      4.96863995     -2.50146419
    C     -3.94429756      4.07081263     -1.61903968
    N     -4.59326698      3.16183743     -1.35962816
    C     -2.83756337      2.80123333      1.85234422
    H     -3.17841062      2.85748803      2.86504296
    H     -2.22750371      1.93085673      1.72917412
    H     -3.67996319      2.74224056      1.19524339
    C     -2.01260052      4.05786800      1.51782131
    N     -1.39837817      4.99348964      1.26875380
