120
Energy:   -592.89432031
    C      5.56055226     -4.90607042      1.03668395
    H      6.09598899     -4.31398539      0.32419326
    H      5.99424893     -5.88296937      1.08643059
    H      5.61549135     -4.44200589      1.99924559
    C      4.08665077     -5.02013228      0.60517000
    N      2.98926411     -5.10505651      0.28388825
    C      0.38710323     -1.52538281     -4.79523295
    H      1.26225497     -1.15766810     -5.28898948
    H     -0.48503969     -1.15248708     -5.29042441
    H      0.38395508     -2.59497872     -4.82445207
    C      0.38730379     -1.05188880     -3.32983083
    N      0.38745311     -0.69935099     -2.23877234
    C      0.24388897      5.64690106     -1.18033979
    H      0.32199708      6.17122798     -2.10979156
    H      0.29360418      6.34554594     -0.37143756
    H     -0.68886905      5.12395049     -1.14313386
    C      1.40239526      4.63939200     -1.06038707
    N      2.26495586      3.88925571     -0.97107683
    C      0.57833175      2.48705644     -3.96889721
    H      1.52319324      2.90542361     -4.24657660
    H      0.33248052      1.68736640     -4.63594452
    H      0.63442319      2.11234541     -2.96822519
    C     -0.50845219      3.57518201     -4.04941681
    N     -1.31761223      4.38534097     -4.10936730
    C      1.46352846     -3.87649400      3.24310602
    H      1.44633776     -4.68409376      2.54140287
    H      1.01842762     -3.00993545      2.80054460
    H      0.91324564     -4.15260466      4.11823504
    C      2.92088121     -3.56395709      3.63046069
    N      4.00594658     -3.33125916      3.91886385
    C     -2.52323470      0.12210858     -0.78247772
    H     -3.31590901      0.19552311     -0.06751064
    H     -1.80079506     -0.59005111     -0.44217105
    H     -2.92044485     -0.19490317     -1.72408631
    C     -1.85046239      1.49768653     -0.94607088
    N     -1.34955282      2.52186684     -1.06787342
    C     -3.22333271     -2.87520965     -3.43899290
    H     -2.49216296     -2.11688670     -3.62670883
    H     -4.15063303     -2.59719390     -3.89475649
    H     -2.88777599     -3.80398088     -3.85092103
    C     -3.42400251     -3.03002669     -1.91999214
    N     -3.57341030     -3.14529501     -0.78902702
    C      2.33731622     -0.25096499      4.75589390
    H      1.68675848     -0.82522403      4.12987363
    H      1.75347400      0.33697865      5.43290914
    H      2.97128566     -0.91010552      5.31133570
    C      3.20148885      0.67801071      3.88307672
    N      3.84490465      1.36967534      3.23322467
    C      1.93699043      4.36582857      2.68988789
    H      2.50385408      4.96509467      3.37139057
    H      1.31189721      4.99773176      2.09419005
    H      2.60358450      3.82172866      2.05387945
    C      1.06139875      3.37696049      3.48177117
    N      0.40948094      2.64070325      4.07136427
    C      4.19975862      0.97300590     -1.69397478
    H      3.55849166      0.54153709     -0.95403455
    H      4.20234408      2.03761241     -1.58671161
    H      5.19413487      0.59921633     -1.56592666
    C      3.68782315      0.59973780     -3.09761042
    N      3.30666393      0.32182274     -4.14268095
    C      3.26614229     -2.98831320     -2.50336751
    H      2.54473466     -2.51030047     -1.87410204
    H      3.11573028     -4.04737899     -2.47777509
    H      3.15276113     -2.63612330     -3.50736257
    C      4.68409749     -2.65892075     -2.00087008
    N      5.73982959     -2.41367310     -1.62673791
    C      1.21635415      1.19134495      0.68454490
    H      0.75333718      2.14802512      0.80815117
    H      1.23758115      0.93695904     -0.35455871
    H      2.21638562      1.22747892      1.06339908
    C      0.41290227      0.12855840      1.45691128
    N     -0.18530418     -0.66273450      2.03197315
    C      0.01782439     -3.46475422     -0.12815389
    H     -0.06329009     -4.29813752      0.53802394
    H     -0.77667232     -2.77469902      0.06548983
    H      0.95831283     -2.97742310      0.02313711
    C     -0.07555051     -3.95986229     -1.58340271
    N     -0.14507238     -4.32849276     -2.66690160
    C     -6.22964291     -0.54262679     -0.00421032
    H     -7.28884500     -0.60188949      0.13535702
    H     -5.85700211      0.34350718      0.46568809
    H     -5.76372339     -1.40099422      0.43285196
    C     -5.91208314     -0.49729577     -1.51043105
    N     -5.67564545     -0.46354476     -2.63188085
    C     -1.64710244      0.17430865      5.17055400
    H     -1.42992545      0.55596830      4.19481313
    H     -1.19222905      0.80173555      5.90833769
    H     -2.70653288      0.15867836      5.31975834
    C     -1.08956375     -1.25552827      5.29829196
    N     -0.67445085     -2.32010685      5.39339868
    C     -2.68081440     -3.07546129      2.59127722
    H     -2.90068243     -3.53365697      3.53287955
    H     -1.62105032     -2.97678123      2.48145260
    H     -3.06628706     -3.68380935      1.79993497
    C     -3.33484552     -1.68245863      2.53308027
    N     -3.82180142     -0.64530484      2.48975000
    C      5.70229665     -1.10666404      1.69199585
    H      5.87140558     -1.62707688      2.61149182
    H      5.84436445     -0.05720247      1.84479066
    H      6.39208740     -1.45600394      0.95236794
    C      4.26164919     -1.36531087      1.21320917
    N      3.18902166     -1.55788519      0.85673072
    C     -4.33813315      2.33883965     -4.15075178
    H     -3.91390972      3.31748507     -4.06597089
    H     -4.91209346      2.12174233     -3.27420320
    H     -4.97246292      2.29841496     -5.01150184
    C     -3.20966128      1.30095913     -4.29551118
    N     -2.36946268      0.52820991     -4.40329114
    C     -3.73473093      5.06967704     -1.28999758
    H     -4.44002296      5.70950527     -1.77793526
    H     -2.95049567      4.81706552     -1.97268459
    H     -3.32090629      5.57548564     -0.44276330
    C     -4.44394958      3.78438590     -0.82455629
    N     -4.97199509      2.82742822     -0.47801409
    C     -2.66570975      2.56545009      2.37532967
    H     -2.82921154      2.58628884      3.43255864
    H     -2.02595412      1.74376029      2.12948891
    H     -3.60280103      2.45097784      1.87168780
    C     -2.00244718      3.88283378      1.93240418
    N     -1.50861804      4.86368581      1.60262602
