120
Energy:   -592.58952429
    C      4.69024170     -1.74900895      0.25926372
    H      4.03012941     -1.46331481      1.05143214
    H      5.63570234     -2.03700151      0.66921926
    H      4.26812435     -2.57307687     -0.27704598
    C      4.88708715     -0.55965704     -0.69901281
    N      5.03364754      0.32586952     -1.41249324
    C      0.98713416     -3.86405172     -3.22191411
    H      0.43168990     -4.68983603     -2.82889744
    H      0.95140217     -3.88671798     -4.29107666
    H      0.56092303     -2.94780713     -2.87014854
    C      2.45141409     -3.96162458     -2.75504815
    N      3.54163705     -4.03427201     -2.40744521
    C      1.10881443      6.10428558      1.47749888
    H      1.21831379      5.22164202      2.07235215
    H      0.37893522      6.74691265      1.92382375
    H      2.04724889      6.61525465      1.42136982
    C      0.65105274      5.71431574      0.05976204
    N      0.31022835      5.42396546     -0.99580748
    C     -1.33025417     -0.24587609     -2.09697163
    H     -0.85621502     -1.18914123     -2.27143635
    H     -0.58868408      0.52459305     -2.06022659
    H     -2.01880223     -0.04066514     -2.88987081
    C     -2.08882962     -0.29252948     -0.75757372
    N     -2.65362353     -0.32726505      0.23966890
    C      2.16515958     -4.84930261      0.77453683
    H      2.00494352     -4.03707082      0.09666478
    H      2.19589773     -5.76890631      0.22838365
    H      3.09347648     -4.70793058      1.28750931
    C      1.01542656     -4.89823744      1.79792305
    N      0.15939806     -4.93467165      2.55988060
    C      2.16600012      2.46339623     -1.16824719
    H      2.65227862      1.54884360     -1.43662544
    H      2.86441474      3.10767669     -0.67629312
    H      1.79785317      2.94386311     -2.05058414
    C      0.99078192      2.16087246     -0.22012190
    N      0.11577855      1.93562976      0.48580047
    C     -3.27132014     -3.22722819     -3.49777456
    H     -3.46837832     -2.55801709     -4.30908508
    H     -3.46215174     -4.23261137     -3.81032384
    H     -2.24790161     -3.13460221     -3.19955647
    C     -4.18600809     -2.87670324     -2.30946559
    N     -4.86703484     -2.61572149     -1.42471555
    C      4.32704228     -0.91452194      4.92650033
    H      3.52554887     -0.34327899      5.34625024
    H      4.94533795     -0.27675056      4.32996264
    H      4.91112032     -1.34210926      5.71448575
    C      3.75007331     -2.03919469      4.04683108
    N      3.32049368     -2.87656468      3.39187733
    C      0.01475447     -3.03239049      5.31446741
    H     -0.28585202     -3.25518785      6.31691305
    H      0.83285021     -3.66446644      5.03860797
    H     -0.80656877     -3.20159660      4.64986488
    C      0.45204906     -1.55847904      5.22525712
    N      0.77763475     -0.46108497      5.15883600
    C      5.93114150      2.74513439      0.82845104
    H      5.71567124      1.76361729      1.19600640
    H      6.87149680      3.07380874      1.21909686
    H      5.97680777      2.72368573     -0.24035841
    C      4.82212164      3.71561167      1.27549555
    N      3.99640594      4.43817612      1.60834051
    C      2.88468819     -0.63443936     -4.01237023
    H      2.62551957     -1.43254073     -4.67627234
    H      2.88547585     -0.99464671     -3.00482413
    H      3.85826640     -0.26620632     -4.26025929
    C      1.85533693      0.50268104     -4.15018599
    N      1.08893813      1.34931887     -4.25279609
    C      0.44659838     -1.31178679      1.72304956
    H     -0.56731853     -1.64717225      1.65679799
    H      0.46957201     -0.32488364      2.13583700
    H      1.00120301     -1.97506117      2.35343031
    C      1.07460098     -1.29486591      0.31701741
    N      1.54217747     -1.28226754     -0.72983744
    C     -2.94395059     -3.73189165      1.32136931
    H     -3.80949589     -4.29094210      1.03293542
    H     -3.22678168     -2.72281682      1.53741019
    H     -2.50757522     -4.17427728      2.19244369
    C     -1.91919957     -3.74288575      0.17186313
    N     -1.15622584     -3.75107135     -0.68399648
    C     -5.27811383      1.02701837     -1.82211648
    H     -5.53862131      0.22864739     -1.15906307
    H     -6.12578135      1.66459227     -1.96303631
    H     -4.47292720      1.59203471     -1.40101065
    C     -4.84203630      0.44524378     -3.17967852
    N     -4.51735676      0.01208615     -4.19044517
    C     -2.05315800      1.07611650      3.40998474
    H     -2.88819220      1.73371039      3.53322572
    H     -1.69120444      1.14367144      2.40533304
    H     -1.27516662      1.35643186      4.08899269
    C     -2.49200233     -0.37100292      3.70129396
    N     -2.81874188     -1.44844910      3.91818691
    C     -5.68698844     -0.91574863      1.78158238
    H     -5.34939233     -1.35602923      2.69650425
    H     -5.15077149     -1.34389355      0.96056934
    H     -6.73350877     -1.10294204      1.66053316
    C     -5.43841862      0.60355621      1.82064429
    N     -5.25334709      1.73474773      1.84972767
    C      1.59679003      2.56667849      3.58582612
    H      0.69869152      2.69351323      3.01817113
    H      2.07996152      3.51386598      3.70532620
    H      1.35680881      2.16479200      4.54800872
    C      2.53937004      1.59930377      2.84600919
    N      3.24116369      0.87904932      2.29518186
    C     -1.77109980      0.56734298     -6.01900152
    H     -1.05951722      1.14305494     -6.57317312
    H     -2.06897802      1.11170402     -5.14731423
    H     -2.62828885      0.37573149     -6.63007521
    C     -1.13281222     -0.76894989     -5.59649668
    N     -0.65757811     -1.76388067     -5.28192263
    C     -0.51768413      4.31838675     -3.99321089
    H      0.44034919      4.03863592     -3.60744954
    H     -0.70464188      5.34829550     -3.77132385
    H     -0.53142146      4.17373151     -5.05329826
    C     -1.60768698      3.44691397     -3.34203581
    N     -2.41924365      2.79806288     -2.85720636
    C     -2.79999147      3.64688857      0.44382461
    H     -2.65667633      2.59573052      0.30444132
    H     -2.40853644      4.17524730     -0.40027201
    H     -3.84511863      3.85453928      0.54123861
    C     -2.06545758      4.10046780      1.71909943
    N     -1.51856372      4.43817816      2.66859949
