120
Energy:   -592.58370841
    C      4.95953473     -2.79082606      0.51896005
    H      5.99569529     -3.02209728      0.65232078
    H      4.64755653     -3.10088341     -0.45645429
    H      4.38139381     -3.30450466      1.25841016
    C      4.74934384     -1.27240168      0.66663265
    N      4.59284716     -0.14186571      0.77658161
    C      1.46830824     -1.34155252     -5.14210316
    H      2.46513383     -1.58658846     -4.84011590
    H      1.39759169     -1.38641507     -6.20882038
    H      0.78273109     -2.03994557     -4.70951767
    C      1.12212151      0.08085107     -4.66406258
    N      0.86436975      1.13989519     -4.30813964
    C      1.03664501      5.49354744      1.80225471
    H      0.43900190      5.78390044      2.64095491
    H      1.75133943      6.26125037      1.59072884
    H      1.54895913      4.58168900      2.02797029
    C      0.13082768      5.28313197      0.57472863
    N     -0.54359450      5.12646809     -0.33922034
    C     -1.65181504     -0.77374842     -2.36167814
    H     -1.14705512     -1.69007503     -2.58631819
    H     -1.06159684      0.05129628     -2.70203503
    H     -2.60173662     -0.75984392     -2.85397352
    C     -1.86058838     -0.66238259     -0.83996484
    N     -2.01602962     -0.57946567      0.29301987
    C      2.31122428     -3.97165229     -2.33156762
    H      3.27292624     -3.89288486     -2.79397999
    H      1.61049434     -4.37514696     -3.03233056
    H      2.37642547     -4.61699920     -1.48058274
    C      1.84177783     -2.57546817     -1.88224595
    N      1.49225361     -1.53594564     -1.54770555
    C      0.51839504      1.86033491     -0.51111655
    H      0.76690954      0.95133670     -1.01793305
    H      0.99931538      2.68299744     -0.99777977
    H     -0.54182600      2.00289003     -0.53366615
    C      0.99448073      1.77942083      0.95120877
    N      1.34894816      1.71917661      2.03997644
    C     -3.96310496     -3.50284543     -3.95444836
    H     -4.31359893     -2.72830426     -4.60417148
    H     -4.44626978     -4.42415509     -4.20472693
    H     -2.90489246     -3.61254239     -4.06869359
    C     -4.28629504     -3.13372624     -2.49468838
    N     -4.52692474     -2.85890023     -1.40783072
    C      1.36727899     -3.92016050      5.01794800
    H      1.53698545     -4.59733403      5.82883388
    H      0.81561338     -4.41729282      4.24760808
    H      0.80977761     -3.07675501      5.36831705
    C      2.71940232     -3.44391050      4.45532160
    N      3.72611959     -3.08932073      4.03642068
    C      0.60308423      3.11189548      5.23554445
    H     -0.08053075      3.93299438      5.29357321
    H      0.67854536      2.64220243      6.19397710
    H      0.24815456      2.40235010      4.51758249
    C      1.98920703      3.62734959      4.80592760
    N      3.02123846      4.01112861      4.48605833
    C      4.70044616      3.15546752      1.65988089
    H      5.51245762      2.53800142      1.33696729
    H      4.05250857      2.58897834      2.29562138
    H      5.08418062      3.99592332      2.19958546
    C      3.91201030      3.64985089      0.43287072
    N      3.32498396      4.01794178     -0.48069413
    C      3.89818089      1.15033130     -2.28843402
    H      4.76542976      1.72953828     -2.04906221
    H      3.27153752      1.07271878     -1.42460911
    H      3.35788661      1.62727908     -3.07932086
    C      4.32950948     -0.25804052     -2.73792757
    N      4.65065321     -1.30663736     -3.07259596
    C      1.18508901     -1.62841556      1.77335157
    H      2.05290717     -1.06648358      1.49762655
    H      1.01949365     -1.53515320      2.82633751
    H      0.33425507     -1.25336671      1.24389992
    C      1.39897837     -3.11119823      1.41669082
    N      1.55822872     -4.21519733      1.15114068
    C     -1.83213649     -4.30152893      0.54518171
    H     -1.68753205     -3.32351811      0.95443050
    H     -1.25409533     -5.00984067      1.10111516
    H     -2.86813755     -4.56278000      0.60305016
    C     -1.38113805     -4.31368777     -0.92724912
    N     -1.04534921     -4.32274058     -2.02354081
    C     -5.34446587      0.74320788     -1.45089175
    H     -4.69955290      0.15687846     -0.83024269
    H     -6.35245689      0.65323166     -1.10339001
    H     -5.04321552      1.76909617     -1.40965412
    C     -5.25548002      0.24006930     -2.90365915
    N     -5.18922601     -0.13454024     -3.98531050
    C     -1.70256254      0.17784451      3.73453477
    H     -2.70473026      0.53855665      3.63232519
    H     -1.09886699      0.57323898      2.94452591
    H     -1.30539237      0.49052597      4.67760701
    C     -1.70068863     -1.36041407      3.66134316
    N     -1.69929341     -2.50571751      3.60684868
    C     -4.78951476     -2.12059373      1.88715546
    H     -4.71067681     -2.54030716      2.86823924
    H     -3.89715250     -2.33215526      1.33594732
    H     -5.63035515     -2.54871563      1.38257825
    C     -4.97713577     -0.59585147      1.99467005
    N     -5.11682815      0.53938845      2.07471955
    C      3.71530740      0.37163797      4.26466648
    H      4.05331780      1.29515774      4.68628286
    H      3.60620158      0.48167176      3.20594669
    H      4.42976248     -0.39754788      4.47156297
    C      2.35757226     -0.00885458      4.88384392
    N      1.34667673     -0.29214858      5.34484968
    C     -2.61372007      1.16028789     -5.93339288
    H     -3.26160939      1.40757185     -5.11853691
    H     -3.13055763      1.31031070     -6.85820161
    H     -1.74731751      1.78745090     -5.90318942
    C     -2.18435529     -0.31418542     -5.81861330
    N     -1.86467369     -1.41199782     -5.73315469
    C     -0.57743946      4.10077677     -3.50246953
    H     -0.78127837      5.10305928     -3.18817722
    H     -0.54609638      4.06154321     -4.57129011
    H      0.36587325      3.78761300     -3.10625157
    C     -1.68684156      3.16542625     -2.98676961
    N     -2.51284184      2.46901528     -2.60280758
    C     -3.21463248      2.97909762      0.74350764
    H     -4.25084183      3.04705391      1.00148496
    H     -2.99347470      1.98532040      0.41427341
    H     -2.99649666      3.67195217     -0.04215668
    C     -2.35551849      3.31439564      1.97683581
    N     -1.71586907      3.56404027      2.89510470
