120
Energy:   -598.27291195
    C      4.92179656     -3.07276794      0.71753096
    H      4.10560299     -3.60748030      1.15663339
    H      5.83556499     -3.36444096      1.19171783
    H      4.97456833     -3.29757250     -0.32725473
    C      4.70540939     -1.55983752      0.90678781
    N      4.54429931     -0.43339206      1.04769813
    C      1.26194605     -1.90868807     -4.40582075
    H      2.30332322     -2.15348453     -4.42836995
    H      0.79672780     -2.24560995     -5.30856917
    H      0.80115259     -2.38720787     -3.56701965
    C      1.09590576     -0.38273502     -4.28133019
    N      0.97228121      0.75340639     -4.18864131
    C      1.34028612      5.53867407      1.79322244
    H      0.75312562      5.75959623      2.66001892
    H      2.06729652      6.31034637      1.64873425
    H      1.83756983      4.60100081      1.92878369
    C      0.42328836      5.45962848      0.55852940
    N     -0.25945816      5.40077545     -0.36075569
    C     -1.76499514     -0.47461323     -2.28322590
    H     -1.17692814     -1.34497378     -2.48706379
    H     -1.28840475      0.38494265     -2.70622044
    H     -2.73711009     -0.59191248     -2.71465666
    C     -1.89818731     -0.29023900     -0.76011527
    N     -1.99735493     -0.15296400      0.37390983
    C      2.34318181     -4.70167028     -1.86825988
    H      2.60803989     -3.68779507     -2.08461016
    H      1.54357264     -5.00628749     -2.51070258
    H      3.19108635     -5.33403671     -2.02972097
    C      1.89247415     -4.81233684     -0.39985411
    N      1.55690181     -4.89473312      0.69344074
    C      0.60423438      2.12072477     -0.61273375
    H      0.77407771      1.23687201     -1.19140267
    H      1.14028031      2.93916915     -1.04598040
    H     -0.44196347      2.34493338     -0.60275047
    C      1.09402521      1.89217076      0.82930231
    N      1.45869675      1.72200191      1.90296370
    C     -4.16011395     -3.31126714     -3.96920579
    H     -3.12329049     -3.53983351     -4.10207687
    H     -4.44397528     -2.53453093     -4.64817758
    H     -4.74573369     -4.18565405     -4.16258662
    C     -4.40096231     -2.84175761     -2.52243253
    N     -4.58028486     -2.49218642     -1.44524408
    C      0.95779216     -4.24392823      4.33587909
    H      0.99241094     -5.00974537      5.08235470
    H      0.52007448     -4.63669274      3.44198963
    H      0.36798551     -3.42522455      4.69190085
    C      2.38683646     -3.75475716      4.03563911
    N      3.45082490     -3.39054705      3.81209679
    C      0.74653033      2.98422147      5.12515093
    H      0.08711188      3.82412272      5.19321986
    H      0.79404616      2.49031754      6.07314895
    H      0.38083227      2.30264570      4.38581441
    C      2.15354703      3.46720444      4.72686527
    N      3.20113491      3.82680722      4.43032350
    C      4.92642512      2.90409542      1.65971254
    H      4.24410693      2.35387142      2.27338641
    H      5.34543592      3.70955806      2.22589182
    H      5.71028243      2.25568727      1.32799928
    C      4.17722106      3.46996660      0.43902295
    N      3.61940458      3.89128342     -0.46983593
    C      3.91559089      0.78175938     -2.07734127
    H      3.31213656      0.81771939     -1.19447666
    H      3.38471549      1.23057082     -2.89075303
    H      4.82713546      1.31600153     -1.90831193
    C      4.23623556     -0.68486108     -2.42057797
    N      4.47497008     -1.77682668     -2.67613329
    C      1.04085243     -1.61299222      1.65617535
    H      0.58220109     -2.55031937      1.89272755
    H      0.42414855     -0.81427298      2.01201661
    H      2.00140905     -1.55770964      2.12433547
    C      1.20607687     -1.49306582      0.12976828
    N      1.32909397     -1.40377516     -1.00671116
    C     -1.87359963     -3.90639479      0.44924028
    H     -1.75732058     -2.90634783      0.81157360
    H     -1.27768858     -4.57104472      1.03918062
    H     -2.90211333     -4.19333080      0.51798898
    C     -1.41832928     -3.97614257     -1.02027125
    N     -1.07935981     -4.02807296     -2.11438939
    C     -5.31858286      1.24728433     -1.63404617
    H     -6.33478337      1.20988616     -1.30112264
    H     -4.99000855      2.26517157     -1.66309079
    H     -4.70137008      0.69239059     -0.95873852
    C     -5.21723998      0.63474411     -3.04334532
    N     -5.14178560      0.17868008     -4.09263260
    C     -1.83330531      0.36070241      3.78405994
    H     -2.79963873      0.78753467      3.61401842
    H     -1.13670131      0.76248927      3.07822052
    H     -1.50989378      0.59431431      4.77689908
    C     -1.91056753     -1.16811891      3.61572724
    N     -1.96809277     -2.30639588      3.49039589
    C     -4.94216715     -1.66913766      1.77489880
    H     -4.97599191     -2.06856316      2.76697508
    H     -4.01375531     -1.93566975      1.31456066
    H     -5.75229429     -2.06902918      1.20159271
    C     -5.06372652     -0.13510895      1.83472569
    N     -5.15423300      1.00704515      1.87926952
    C      3.57136881      0.11245628      4.34040529
    H      3.97178880      0.85237366      5.00153029
    H      3.51193440      0.51358224      3.35022116
    H      4.20850348     -0.74717003      4.33934174
    C      2.16360436     -0.29257462      4.81553601
    N      1.11545973     -0.59413854      5.16929242
    C     -2.34638063      1.21193768     -5.93062452
    H     -1.41849723      1.73795445     -5.84554257
    H     -3.01481611      1.54132997     -5.16277439
    H     -2.78032810      1.40691792     -6.88904582
    C     -2.09523128     -0.29984038     -5.77879863
    N     -1.90823917     -1.42542786     -5.66575735
    C     -0.22536213      4.15632872     -3.67691929
    H     -0.54056024      4.91413538     -4.36341722
    H      0.41058889      3.45966698     -4.18202107
    H      0.31114923      4.60796679     -2.86878706
    C     -1.45918404      3.41830324     -3.12501180
    N     -2.37782053      2.86880972     -2.71409158
    C     -3.10706779      3.38470544      0.62209186
    H     -4.12336125      3.53485984      0.92125979
    H     -2.99690736      2.40172748      0.21402557
    H     -2.84242322      4.11010153     -0.11862593
    C     -2.18380231      3.53932096      1.84490619
    N     -1.49638918      3.65443925      2.75534704
