120
Energy:   -592.13189422
    C      4.85161951     -2.28824167      0.31111480
    H      5.87009415     -2.44007491      0.60190041
    H      4.72567246     -2.57762413     -0.71128151
    H      4.21160617     -2.88077489      0.93094251
    C      4.48818713     -0.80041333      0.47199904
    N      4.21759520      0.30734250      0.59178467
    C      1.21529065     -1.90056651     -4.45414329
    H      2.25401118     -2.10593153     -4.60836735
    H      0.65228789     -2.26314993     -5.28868523
    H      0.88397585     -2.38847427     -3.56135237
    C      1.00745797     -0.38092019     -4.31601068
    N      0.85271709      0.75052558     -4.21316467
    C      1.01958485      5.51564196      1.94744337
    H      1.75373578      6.27429717      1.77318823
    H      1.50516515      4.61378472      2.25690158
    H      0.34689557      5.83960724      2.71388628
    C      0.23225195      5.25547755      0.64974488
    N     -0.35395318      5.06177332     -0.31645064
    C     -1.77228363     -0.78755443     -2.26136368
    H     -1.10804948     -1.59895482     -2.47425466
    H     -1.37428216      0.11651196     -2.67265175
    H     -2.72928200     -0.98642144     -2.69668555
    C     -1.92374689     -0.63470409     -0.73647167
    N     -2.03651817     -0.52090007      0.39887975
    C      2.65916563     -4.57750001     -2.19459870
    H      2.93096702     -3.55689972     -2.36606078
    H      1.80992342     -4.82631431     -2.79607871
    H      3.47926384     -5.21356674     -2.45490072
    C      2.30991979     -4.77283462     -0.70749691
    N      2.04989038     -4.91827013      0.39971797
    C      0.96718053      1.80375289     -0.79328068
    H      1.72969327      1.14543831     -1.15396948
    H      1.15377935      2.79509757     -1.15009394
    H      0.01310300      1.47150284     -1.14576482
    C      0.97432782      1.80263021      0.74670233
    N      0.97964930      1.80179432      1.89328967
    C     -3.98806566     -3.63075512     -4.01837643
    H     -4.33927162     -2.80920353     -4.60711028
    H     -4.51713744     -4.51900530     -4.29404608
    H     -2.94136873     -3.77114976     -4.19046354
    C     -4.22758532     -3.33269513     -2.52660213
    N     -4.40591859     -3.11077592     -1.41590835
    C      0.98341616     -3.44690479      5.11013696
    H      0.12201525     -3.78127748      4.57061535
    H      1.00991715     -3.92100018      6.06900627
    H      1.86739105     -3.69961286      4.56275581
    C      0.91278477     -1.91960170      5.29440975
    N      0.86019649     -0.78245512      5.43160922
    C      0.55681918      2.66500203      5.32613390
    H     -0.20365093      3.38410097      5.54857962
    H      0.74264015      2.06322233      6.19113728
    H      0.23235361      2.04047634      4.52016315
    C      1.85087455      3.39500146      4.92101475
    N      2.81435760      3.93851922      4.61938513
    C      4.39560425      3.46033189      1.66829201
    H      5.30526316      2.91400352      1.53064698
    H      3.67652240      2.83800970      2.15873616
    H      4.58651061      4.32563806      2.26804119
    C      3.84655233      3.89692184      0.29733205
    N      3.43775821      4.22198290     -0.72340996
    C      4.15415903      1.44460830     -2.82113074
    H      4.24628866      1.72224761     -1.79189378
    H      3.20322850      1.76443076     -3.19307672
    H      4.93356370      1.91029791     -3.38731149
    C      4.26843045     -0.08553769     -2.95226161
    N      4.35351071     -1.22480093     -3.04989450
    C      1.06531747     -1.80919463      1.69952141
    H      0.03867622     -2.00350522      1.93006709
    H      1.37546475     -0.90760920      2.18516681
    H      1.66817515     -2.62424315      2.04180438
    C      1.22886909     -1.65408083      0.17610729
    N      1.35064070     -1.53859156     -0.95814377
    C     -1.56025339     -4.26846690      0.48427392
    H     -1.76374164     -3.26812837      0.80492256
    H     -0.75900986     -4.67356062      1.06634519
    H     -2.43553259     -4.86989682      0.61491647
    C     -1.16082573     -4.25956495     -1.00299817
    N     -0.86343367     -4.25293705     -2.11033985
    C     -5.25911917      1.11827184     -1.40435786
    H     -6.21919807      0.97136347     -0.95539615
    H     -5.10120696      2.16271513     -1.57494814
    H     -4.49879316      0.74468069     -0.75072715
    C     -5.19889975      0.36418312     -2.74574663
    N     -5.15406366     -0.19727021     -3.74447153
    C     -2.02546543      0.23886705      3.74382978
    H     -1.72274811      0.52814169      4.72850362
    H     -2.99404145      0.64294740      3.53531444
    H     -1.32167820      0.61302113      3.02997309
    C     -2.08005423     -1.29755076      3.65416155
    N     -2.12069808     -2.44148365      3.58739949
    C     -4.97984647     -2.24042707      1.71846233
    H     -5.04356908     -2.69511706      2.68494908
    H     -4.02263968     -2.44943027      1.28837874
    H     -5.74835687     -2.63516773      1.08721700
    C     -5.15971565     -0.71707082      1.85496443
    N     -5.29363643      0.41713715      1.95659645
    C      3.77831524      0.54427795      4.13910987
    H      3.01386843      0.95802289      3.51514162
    H      4.71044232      1.02525006      3.92767659
    H      3.52237759      0.69847967      5.16654203
    C      3.90534013     -0.96538367      3.86272883
    N      3.99991594     -2.08939536      3.65695058
    C     -2.58668663      1.11248958     -5.76245953
    H     -1.68665438      1.69030322     -5.73125831
    H     -3.19252624      1.34982886     -4.91303176
    H     -3.12503711      1.33898422     -6.65899622
    C     -2.23528126     -0.38670690     -5.73956428
    N     -1.97364399     -1.50292682     -5.72251773
    C     -0.35827240      4.04504550     -3.59377399
    H     -0.76350195      4.91776274     -4.06180584
    H      0.15115309      3.45235720     -4.32459910
    H      0.33036470      4.33770234     -2.82890145
    C     -1.49936136      3.22080461     -2.96915975
    N     -2.34895395      2.60711980     -2.50410606
    C     -2.76820920      2.91039576      0.90940515
    H     -2.07363354      2.21502095      0.48641733
    H     -2.91625155      3.72421054      0.23066510
    H     -3.70209367      2.41892721      1.08609007
    C     -2.21071211      3.44727903      2.24077788
    N     -1.79563019      3.84701303      3.23204540
