120
Energy:   -592.06078618
    C      4.64236335     -3.52902258      2.40749394
    H      4.98030261     -2.55230088      2.13052470
    H      5.44277896     -4.22958057      2.29150922
    H      4.32191826     -3.51939948      3.42833743
    C      3.46518262     -3.94034268      1.50380080
    N      2.58871806     -4.24658918      0.83096017
    C      0.74967372     -1.23802968     -5.13081469
    H      1.73872845     -1.42918193     -5.49155247
    H      0.80046603     -0.60791907     -4.26751877
    H      0.17933835     -0.75160218     -5.89436229
    C      0.07392669     -2.56989596     -4.75518429
    N     -0.42919768     -3.56153093     -4.47551038
    C      0.10361297      5.54710023     -0.82823106
    H     -0.58374247      4.74022935     -0.68193661
    H     -0.28907014      6.22194634     -1.55986060
    H      0.24574421      6.06663232      0.09631435
    C      1.45350080      4.98937835     -1.31644120
    N      2.45855365      4.57412905     -1.67993585
    C      0.62981202      2.43023418     -3.92738386
    H      1.55055869      2.96842890     -3.84094194
    H      0.55101076      2.01374460     -4.90984295
    H      0.60765650      1.64274263     -3.20332220
    C     -0.55007470      3.38847063     -3.67989600
    N     -1.42855399      4.10192122     -3.49563004
    C      0.06888391     -4.60949324      3.21745381
    H      0.64899985     -5.34586919      2.70158936
    H     -0.57381932     -4.11067955      2.52245989
    H     -0.52230590     -5.08537509      3.97172841
    C      1.00983587     -3.58266523      3.87459431
    N      1.71041738     -2.81814510      4.36386528
    C     -1.96698887      0.18465058     -1.16435959
    H     -2.83128121      0.68672686     -1.54622127
    H     -2.24670955     -0.42037677     -0.32734265
    H     -1.54812137     -0.43584603     -1.92884181
    C     -0.92331955      1.22587627     -0.71915919
    N     -0.14626030      2.00111613     -0.38768725
    C     -3.71581439     -2.77228465     -4.03115490
    H     -2.95277409     -2.13603782     -4.42847045
    H     -4.67624301     -2.40536137     -4.32753855
    H     -3.58248837     -3.76576153     -4.40549025
    C     -3.62361242     -2.78623570     -2.49398082
    N     -3.55496385     -2.79662288     -1.34948484
    C      3.15021038      0.26209730      5.35339413
    H      2.27640451     -0.22999772      4.98029097
    H      3.18135446      1.26470382      4.98095714
    H      3.12044055      0.27964520      6.42283553
    C      4.40586200     -0.49791485      4.88721760
    N      5.34075171     -1.06377844      4.54012799
    C      1.76405221      3.65235508      2.03563841
    H      1.12014704      4.50140844      1.93871205
    H      1.90545011      3.20056288      1.07606062
    H      2.71016866      3.96490693      2.42560518
    C      1.12558543      2.63075314      2.99495570
    N      0.65021789      1.87012406      3.70921102
    C      3.39679170      1.37144571     -1.32183303
    H      2.39093146      1.66430352     -1.10416433
    H      4.03060380      2.23337805     -1.30589764
    H      3.73088962      0.66941486     -0.58669335
    C      3.45141172      0.71980960     -2.71610239
    N      3.49207882      0.23463689     -3.75419930
    C      3.81258756     -3.15842485     -2.55219906
    H      4.57509481     -3.62446507     -3.14066265
    H      3.23282067     -2.50624237     -3.17141425
    H      3.17702572     -3.90977826     -2.13216538
    C      4.46431316     -2.34494188     -1.41857690
    N      4.94955249     -1.73926684     -0.57454367
    C      1.92697127     -0.57056632      1.55934058
    H      2.41106425     -0.67426422      2.50791894
    H      1.97048105      0.45177609      1.24657553
    H      2.42182219     -1.18583845      0.83721741
    C      0.45539968     -1.00719657      1.68356247
    N     -0.64025226     -1.33228763      1.77605132
    C     -0.29856610     -3.75233952     -0.95652577
    H      0.40321314     -4.52366732     -0.71681863
    H     -0.90695199     -4.06660792     -1.77871861
    H     -0.91952057     -3.55851045     -0.10697004
    C      0.46072890     -2.46885922     -1.34090762
    N      1.02605854     -1.51324980     -1.62709739
    C     -5.78360167      0.04226812     -0.23997989
    H     -6.49248000      0.78833934      0.05288431
    H     -4.80663171      0.33033980      0.08780586
    H     -6.04729676     -0.89444596      0.20491417
    C     -5.78992942     -0.09795678     -1.77356945
    N     -5.79464072     -0.20236060     -2.91539658
    C     -1.28726951     -0.58398887      5.04853351
    H     -1.54574484     -0.05997761      5.94491674
    H     -1.72302493     -0.08742042      4.20684706
    H     -0.22291587     -0.60205480      4.94025591
    C     -1.81997074     -2.02686185      5.12564999
    N     -2.21659102     -3.10114637      5.18306671
    C     -3.60272509     -3.20322614      1.97403046
    H     -3.52448707     -3.82006961      2.84482500
    H     -2.66544563     -3.19418461      1.45796405
    H     -4.36176059     -3.59259251      1.32815273
    C     -3.97186809     -1.76804666      2.39306900
    N     -4.24671183     -0.69949030      2.70506224
    C      6.66409020      0.26960873      1.56947764
    H      6.63850926     -0.67704746      2.06756183
    H      7.51273433      0.82725565      1.90671961
    H      6.73575706      0.11501445      0.51313321
    C      5.37634551      1.05199286      1.88757931
    N      4.41756105      1.63451341      2.12442045
    C     -4.16192057      2.18518006     -4.51639094
    H     -3.82236098      3.13421082     -4.87547322
    H     -4.51183417      2.28882502     -3.51054936
    H     -4.95946909      1.83357991     -5.13702996
    C     -2.99914281      1.17615350     -4.55398471
    N     -2.13340192      0.42488737     -4.58197498
    C     -3.59562501      5.54918546     -1.12109160
    H     -4.52364772      6.07857285     -1.17959825
    H     -3.02773106      5.72550145     -2.01064667
    H     -3.04276173      5.89138086     -0.27130128
    C     -3.87301915      4.04099187     -0.97965400
    N     -4.07955170      2.91807319     -0.87434728
    C     -2.54610711      2.09243568      2.29500983
    H     -2.93524309      2.01456574      3.28869471
    H     -1.70983909      1.43376228      2.18682360
    H     -3.30623505      1.82220680      1.59210090
    C     -2.09562618      3.54143763      2.03221664
    N     -1.76022265      4.62028546      1.83655517
