120
Energy:   -591.97521291
    C      5.14741861     -3.04507233      0.03847603
    H      6.13817558     -3.23574920      0.39476684
    H      5.08598573     -3.30081754     -0.99869294
    H      4.44894177     -3.63583867      0.59347543
    C      4.81517055     -1.55229369      0.21964768
    N      4.56779677     -0.44085214      0.35453821
    C      0.66353249     -2.32802848     -4.42491688
    H      0.68574328     -2.78000907     -3.45531881
    H      1.04865707     -1.33167005     -4.36288435
    H      1.26446192     -2.90133396     -5.09953065
    C     -0.78761768     -2.28639421     -4.93875513
    N     -1.86806495     -2.25539561     -5.32133106
    C      1.34197734      5.69678395      1.62333413
    H      1.78788622      6.66521964      1.53279260
    H      2.06393443      4.94708257      1.37509054
    H      1.00756109      5.55073004      2.62918358
    C      0.14243062      5.59217832      0.66325844
    N     -0.75068644      5.51429467     -0.05156155
    C     -1.91184893     -0.57065946     -2.07192363
    H     -2.25544191     -1.55173234     -2.32557703
    H     -0.90644831     -0.44486965     -2.41579222
    H     -2.54162662      0.15901877     -2.53651897
    C     -1.95794818     -0.38988207     -0.54326592
    N     -1.99227118     -0.25528508      0.59488923
    C      2.24486798     -4.82841264     -1.90599022
    H      2.53686484     -3.85497494     -2.24073945
    H      1.37589291     -5.14486955     -2.44416905
    H      3.04311206     -5.51952984     -2.07937562
    C      1.92640994     -4.77928166     -0.40007833
    N      1.68930346     -4.74270141      0.72114152
    C      0.42208154      2.11885443     -0.88159424
    H      0.84130303      1.35812783     -0.25673539
    H      0.03058921      1.67327856     -1.77215305
    H     -0.36545399      2.61782997     -0.35651302
    C      1.51563668      3.13687824     -1.25491001
    N      2.32983819      3.89484325     -1.53286057
    C     -4.52353151     -3.34707673     -3.45407104
    H     -4.54990403     -2.46864215     -4.06444582
    H     -5.34859360     -3.98054550     -3.70484775
    H     -3.60657154     -3.87180317     -3.62361647
    C     -4.61783924     -2.94442981     -1.97063533
    N     -4.68805563     -2.64464088     -0.86615001
    C      1.60278444     -4.03512179      4.22348449
    H      1.14298479     -3.22606443      4.75160441
    H      1.74660917     -4.85996597      4.88970189
    H      0.97194134     -4.33663685      3.41353095
    C      2.96549703     -3.57844348      3.67025822
    N      3.98009850     -3.23842572      3.25835611
    C      1.50353947      3.12351923      4.74910770
    H      0.73988297      3.86753067      4.83952840
    H      2.45532140      3.56096062      4.96740861
    H      1.31003405      2.32820912      5.43826413
    C      1.51128266      2.56776137      3.31290672
    N      1.51704781      2.15397439      2.24358981
    C      4.74249310      2.89239319      0.62012602
    H      4.74991499      3.73727074     -0.03640047
    H      3.88909141      2.28296849      0.40750860
    H      5.63470666      2.31991514      0.47478869
    C      4.67595095      3.37745842      2.08022323
    N      4.62640728      3.73861154      3.16733197
    C      3.32007361      0.55017090     -2.91925243
    H      3.88916723      1.20937976     -3.54092463
    H      3.44809721      0.82774116     -1.89384334
    H      2.28475126      0.61850719     -3.18066563
    C      3.80683706     -0.89644649     -3.12409252
    N      4.16925457     -1.97351890     -3.27660528
    C      1.29389116     -1.29790574      1.54365880
    H      0.84023283     -2.17265082      1.96069040
    H      0.74898572     -0.43098550      1.85418489
    H      2.30563766     -1.22408777      1.88398071
    C      1.27491782     -1.39288668      0.00670772
    N      1.26079131     -1.46360431     -1.13762223
    C     -1.69588960     -3.93676817      0.72783299
    H     -1.08744357     -4.65338619      1.23886354
    H     -2.72791476     -4.14197994      0.92202691
    H     -1.45634386     -2.95336167      1.07486123
    C     -1.43101860     -4.02539275     -0.78662699
    N     -1.23381011     -4.09137777     -1.91421129
    C     -5.44674526      0.97984953     -0.82572254
    H     -4.83397728      0.35616326     -0.20893164
    H     -6.46632928      0.90150970     -0.51074574
    H     -5.12344735      1.99606589     -0.73807623
    C     -5.32654137      0.52764964     -2.29291928
    N     -5.23704411      0.19096626     -3.38531395
    C     -1.33129620      0.40455300      4.00164518
    H     -2.30004153      0.76633530      4.27650192
    H     -1.03938838      0.83998676      3.06886098
    H     -0.62287610      0.67237648      4.75749611
    C     -1.37675160     -1.12831053      3.86070830
    N     -1.41059522     -2.26959711      3.75577439
    C     -4.60621938     -1.86800284      2.41691100
    H     -4.45964024     -2.34125227      3.36530423
    H     -3.76758364     -2.07032229      1.78393705
    H     -5.49657838     -2.24904833      1.96197773
    C     -4.74274119     -0.34726530      2.61770723
    N     -4.84438788      0.78499292      2.76720915
    C      4.37746406      0.17221998      3.88833861
    H      5.00798482     -0.69225636      3.88339582
    H      4.83999486      0.94775549      4.46236737
    H      4.22947112      0.51148177      2.88439707
    C      3.01728372     -0.18805574      4.51420667
    N      2.00456762     -0.45629738      4.98019389
    C     -2.68877914      1.17368949     -5.51224016
    H     -3.32641377      1.83679173     -4.96578095
    H     -3.05410150      0.17208860     -5.42149694
    H     -2.67899606      1.45768535     -6.54381650
    C     -1.25934861      1.25213289     -4.94463556
    N     -0.19507260      1.31053757     -4.52202813
    C     -1.25203978      4.75780593     -3.31582480
    H     -1.28480255      5.65153897     -2.72839987
    H     -1.61815422      4.96413835     -4.29984017
    H     -0.24270424      4.40793190     -3.37689053
    C     -2.13064501      3.67808916     -2.65714085
    N     -2.78480653      2.87419094     -2.16672071
    C     -3.11981196      3.26024657      1.24677749
    H     -4.12867123      3.21415523      1.60030082
    H     -2.83880779      2.30911907      0.84516546
    H     -3.04301236      4.00638503      0.48370586
    C     -2.18277706      3.62161528      2.41424409
    N     -1.48511198      3.89067071      3.28347603
