120
Energy:   -591.91341300
    C      4.76179489     -2.40464070      0.46379235
    H      5.55716362     -2.57362090      1.15930256
    H      5.08413212     -2.67655544     -0.51959982
    H      3.91537723     -2.99869979      0.73869239
    C      4.37134183     -0.91507791      0.48247666
    N      4.08063178      0.19396930      0.49638798
    C      1.25692532     -2.08134152     -4.98579650
    H      0.55402847     -2.63434317     -4.39840789
    H      2.25182130     -2.35474706     -4.70237018
    H      1.10780150     -2.30236661     -6.02204410
    C      1.05129129     -0.57381933     -4.74769672
    N      0.89818741      0.54859946     -4.57042060
    C      1.10278589      5.66667253      1.56068443
    H      0.41071619      6.00872320      2.30158999
    H      1.78400362      6.45526026      1.31784519
    H      1.64833024      4.82887299      1.94196173
    C      0.33322720      5.24520275      0.29508471
    N     -0.23974422      4.93139934     -0.64721181
    C     -1.65926239     -1.04455443     -2.33374998
    H     -1.23262355     -2.01243417     -2.49526869
    H     -0.98399027     -0.29360195     -2.68727089
    H     -2.58532805     -0.96988681     -2.86452888
    C     -1.91234862     -0.83980653     -0.82855044
    N     -2.10078283     -0.68736241      0.29213903
    C      2.21725892     -4.28886747     -1.88506270
    H      2.31845316     -4.82788568     -0.96630307
    H      3.16096065     -4.26206154     -2.38865735
    H      1.49504271     -4.77575810     -2.50654509
    C      1.75284044     -2.85090359     -1.58811936
    N      1.40705977     -1.78027412     -1.36703155
    C      0.86645166      1.58093025     -0.58521668
    H      1.53872909      0.79668030     -0.86431391
    H      1.12788877      2.47750587     -1.10742534
    H     -0.13440722      1.29967988     -0.83835464
    C      0.96308950      1.82405597      0.93239691
    N      1.03504077      2.00507412      2.06232921
    C     -4.08143465     -3.69650012     -3.73167347
    H     -4.37851877     -2.93281037     -4.41972809
    H     -4.59610775     -4.60545103     -3.96366254
    H     -3.02597543     -3.85470408     -3.80833131
    C     -4.43218398     -3.25973641     -2.29716576
    N     -4.69333280     -2.93454598     -1.22910956
    C      1.99397435     -3.58482400      5.25336786
    H      1.31547885     -2.79629516      5.50389991
    H      2.37096225     -4.02949722      6.15061083
    H      1.48193088     -4.32591917      4.67588322
    C      3.16488182     -3.01309497      4.43257458
    N      4.03667566     -2.58741672      3.82145668
    C      0.48368123      3.47632014      5.24822153
    H     -0.16093987      4.31518181      5.40845549
    H      0.60177657      2.93704630      6.16481103
    H      0.05469011      2.83299203      4.50863067
    C      1.85891371      3.97105007      4.76285783
    N      2.88283679      4.33939900      4.40148249
    C      4.42798295      3.47923734      1.39025571
    H      5.17326661      2.71339721      1.33602161
    H      3.64298634      3.16712649      2.04696434
    H      4.86859845      4.37988924      1.76386410
    C      3.85098192      3.73441594     -0.01457656
    N      3.42137843      3.92440800     -1.06053804
    C      3.97035349      1.03498864     -2.89665624
    H      4.47207058      1.41560519     -2.03160643
    H      2.91968454      1.21735082     -2.80869094
    H      4.34541110      1.52483911     -3.77088584
    C      4.22063165     -0.48030110     -3.01004869
    N      4.40697512     -1.60850319     -3.09447451
    C      1.00086848     -1.51571837      2.00979821
    H      0.67834408     -1.35752112      3.01769296
    H      0.26803449     -1.12472445      1.33527824
    H      1.93387097     -1.01642125      1.85134367
    C      1.17696983     -3.02476039      1.75804338
    N      1.30808529     -4.14831076      1.57060047
    C     -2.05593174     -4.30477288      0.88304653
    H     -1.88279570     -3.30701179      1.22858510
    H     -1.52144517     -4.99448049      1.50234179
    H     -3.10274918     -4.52149673      0.92890628
    C     -1.56774387     -4.43621950     -0.57159926
    N     -1.20426581     -4.53408749     -1.65464918
    C     -5.22773552      0.69063837     -1.40590446
    H     -5.53181715     -0.09993852     -0.75212872
    H     -5.93233868      1.49368207     -1.34628649
    H     -4.26031724      1.04257022     -1.11410840
    C     -5.16834248      0.16617580     -2.85262885
    N     -5.12412167     -0.22431042     -3.92978092
    C     -1.81026736      0.48181525      3.73112958
    H     -2.76402218      0.93583666      3.90176509
    H     -1.44000629      0.77939077      2.77235190
    H     -1.12509947      0.79499867      4.49097180
    C     -1.95660237     -1.05067523      3.77186044
    N     -2.06555544     -2.19168405      3.80218641
    C     -4.99517721     -1.91814466      1.98236428
    H     -4.97553340     -2.33819799      2.96626951
    H     -4.12560090     -2.23150459      1.44334509
    H     -5.87258461     -2.25248758      1.46926570
    C     -5.01217870     -0.38137123      2.08053951
    N     -5.02483709      0.76282644      2.15363542
    C      3.70468266      0.85492172      4.06076129
    H      4.03293953      1.77563700      4.49599800
    H      3.51236210      1.00169815      3.01847123
    H      4.46513164      0.11200617      4.18197571
    C      2.41455565      0.38777386      4.76000742
    N      1.45399744      0.03996105      5.28062795
    C     -2.55125976      0.81525143     -5.97574690
    H     -1.63227385      1.35866604     -6.04692027
    H     -3.10202346      1.15593511     -5.12398810
    H     -3.12961983      0.97501131     -6.86167889
    C     -2.24881776     -0.68712670     -5.82412633
    N     -2.02363595     -1.80571551     -5.71123793
    C     -0.19727148      3.64301808     -3.72242590
    H     -0.31921136      4.67738910     -3.47725770
    H     -0.20261273      3.52551134     -4.78594023
    H      0.73341344      3.29060746     -3.32932104
    C     -1.35357441      2.83062531     -3.11039525
    N     -2.21449450      2.22576196     -2.65471061
    C     -2.82953039      2.96006296      0.73016351
    H     -2.43459788      1.96862332      0.65285929
    H     -2.57102354      3.51632612     -0.14656028
    H     -3.89457354      2.91358477      0.82193471
    C     -2.23712754      3.65328688      1.97117095
    N     -1.79605669      4.16942359      2.89515740
