120
Energy:   -591.57340987
    C      4.94763750     -3.06959389      0.57586608
    H      5.86796030     -3.33825213      1.05097541
    H      5.00737673     -3.29223883     -0.46900690
    H      4.14478866     -3.62521955      1.01360226
    C      4.69258252     -1.56279633      0.76588727
    N      4.50268250     -0.44091705      0.90736669
    C      1.20930186     -1.88560477     -4.50022130
    H      0.73460569     -2.35194618     -3.66231353
    H      2.24819054     -2.14157681     -4.50958750
    H      0.75007582     -2.22539861     -5.40495921
    C      1.05822836     -0.35696153     -4.39055531
    N      0.94574727      0.78118285     -4.30890399
    C      1.39635157      5.41248586      1.97407670
    H      1.51084464      6.44938961      2.21203071
    H      1.24339507      5.30304949      0.92073578
    H      2.27851008      4.88059913      2.26354511
    C      0.18205917      4.84314439      2.73100753
    N     -0.72203671      4.41924380      3.29457694
    C     -1.77853671     -0.50714605     -2.34189376
    H     -1.26360116      0.31429209     -2.79464196
    H     -2.74837377     -0.60678191     -2.78278814
    H     -1.22144801     -1.40718840     -2.49833878
    C     -1.92561012     -0.25061315     -0.83054989
    N     -2.03511297     -0.05961274      0.29471431
    C      2.31595678     -4.63954819     -1.97341661
    H      2.54160681     -3.61732643     -2.19487749
    H      1.52663219     -4.97702539     -2.61214576
    H      3.18674060     -5.24005657     -2.13473718
    C      1.87394823     -4.76078554     -0.50320236
    N      1.54485278     -4.85105226      0.59143898
    C      0.66608945      2.20108774     -0.54166995
    H     -0.40102369      2.15085430     -0.60205484
    H      1.09479129      1.45294973     -1.17523395
    H      0.99610125      3.16842823     -0.85828276
    C      1.10995497      1.95789818      0.91278604
    N      1.44043303      1.77683250      1.99569464
    C     -4.20116568     -3.32812641     -3.95157051
    H     -4.49324571     -2.55051630     -4.62604211
    H     -4.78771890     -4.20290681     -4.14028634
    H     -3.16553593     -3.55512623     -4.09593535
    C     -4.42712366     -2.86156297     -2.50144584
    N     -4.59535966     -2.51418528     -1.42176212
    C      0.89802384     -4.25043235      4.16977104
    H      0.32668554     -3.40239352      4.48489461
    H      0.90271700     -4.98602769      4.94680164
    H      0.46039724     -4.66716870      3.28675753
    C      2.34342701     -3.81247731      3.86876429
    N      3.41959537     -3.48639987      3.64465108
    C      1.02614361      2.79091922      5.59950871
    H      0.44448027      3.62836264      5.92394124
    H      1.21213638      2.14259097      6.43015681
    H      0.49072390      2.25646940      4.84281311
    C      2.36621995      3.28794383      5.02613105
    N      3.36396769      3.65800125      4.59922533
    C      4.94340291      2.86911058      1.66078849
    H      4.23686555      2.39301243      2.30811816
    H      5.40889963      3.68232207      2.17741113
    H      5.68906331      2.16123638      1.36447146
    C      4.21712636      3.40272999      0.41204003
    N      3.67638047      3.80003390     -0.51770995
    C      3.96257791      0.78949182     -2.25658906
    H      4.88656663      1.31930970     -2.15442232
    H      3.40938862      0.85780245     -1.34323569
    H      3.39116366      1.21921968     -3.05265364
    C      4.25131377     -0.68985561     -2.57244151
    N      4.46629075     -1.79129702     -2.80760801
    C      1.03772354     -1.57412350      1.53852828
    H      0.55904314     -2.50733285      1.75039042
    H      0.43934511     -0.77217615      1.91763617
    H      2.00011199     -1.55276273      2.00570198
    C      1.20276344     -1.41594760      0.01558961
    N      1.32564315     -1.29817845     -1.11830746
    C     -1.89495626     -3.86128996      0.46610607
    H     -1.80678786     -2.84505780      0.78921396
    H     -1.27466001     -4.48449945      1.07581221
    H     -2.91365441     -4.17650876      0.55436866
    C     -1.44845115     -3.97326955     -1.00348359
    N     -1.11600780     -4.05664346     -2.09765988
    C     -5.34612421      1.21415138     -1.57521368
    H     -6.36085439      1.20446944     -1.23590686
    H     -4.99008122      2.22269481     -1.60640054
    H     -4.74005339      0.64255511     -0.90375634
    C     -5.27039585      0.59920776     -2.98507522
    N     -5.21401264      0.14135428     -4.03478122
    C     -1.78477913      0.62969852      3.68096742
    H     -2.73982485      1.06232792      3.46737982
    H     -1.05783852      1.01441865      2.99653565
    H     -1.49757460      0.87574500      4.68190388
    C     -1.86983827     -0.90079952      3.53284352
    N     -1.93316867     -2.04032488      3.42255854
    C     -4.93810808     -1.65600157      1.79019413
    H     -4.92618333     -2.07692403      2.77385173
    H     -4.02059558     -1.88897656      1.29140304
    H     -5.75823767     -2.06433637      1.23742904
    C     -5.09542969     -0.12717848      1.88791752
    N     -5.21256278      1.01109981      1.96067703
    C      3.64030990     -0.01595720      4.23139967
    H      4.09170912      0.65473390      4.93233646
    H      3.57917380      0.45714302      3.27362222
    H      4.23349200     -0.90309321      4.15378662
    C      2.22488144     -0.38534964      4.71276388
    N      1.17103061     -0.66037910      5.07116141
    C     -2.46064367      1.17006793     -6.00059947
    H     -1.55302006      1.71843945     -5.85774201
    H     -3.18429627      1.48346191     -5.27740502
    H     -2.83737260      1.35411646     -6.98502851
    C     -2.18321584     -0.33512514     -5.83022458
    N     -1.97665822     -1.45580981     -5.70337273
    C     -0.30168821      4.10957120     -3.58009163
    H     -0.06220983      4.83838417     -2.83418149
    H     -0.49833769      4.60182431     -4.50956188
    H      0.52235318      3.43760147     -3.69972262
    C     -1.54933561      3.31928152     -3.14372231
    N     -2.47826581      2.73087493     -2.81882551
    C     -3.15502810      3.43665154      0.87487538
    H     -2.91435689      3.32084616      1.91100600
    H     -3.15786519      2.47778709      0.40003855
    H     -4.12256679      3.88387236      0.78127247
    C     -2.10479715      4.33971064      0.20174895
    N     -1.32285247      5.01207920     -0.29942427
