120
Energy:   -598.26124356
    C      4.99834911     -2.97497540      0.59916534
    H      5.94449879     -3.22770841      1.03024189
    H      4.98515005     -3.26900932     -0.42955665
    H      4.21885471     -3.48476524      1.12585491
    C      4.77748646     -1.45432079      0.70128894
    N      4.61304418     -0.32212431      0.77732460
    C      0.99776125     -2.18112681     -4.33973397
    H      2.03907281     -2.41653993     -4.41150487
    H      0.48217149     -2.58226856     -5.18717222
    H      0.59673390     -2.60702429     -3.44380568
    C      0.81829411     -0.65198691     -4.30622687
    N      0.68467268      0.48652725     -4.28127931
    C      1.40698529      5.66951502      1.23527670
    H      1.02216401      6.34715435      1.96850089
    H      2.31997113      6.05809933      0.83482924
    H      1.59313710      4.71931585      1.69065361
    C      0.37890184      5.50252623      0.10092262
    N     -0.38655301      5.37819549     -0.74365555
    C     -1.90414354     -0.64490121     -2.12009779
    H     -1.32075064     -1.52342722     -2.30105346
    H     -1.46558912      0.18614472     -2.63189049
    H     -2.90074434     -0.79858850     -2.47796112
    C     -1.94062367     -0.35537004     -0.60799961
    N     -1.96778478     -0.13980093      0.51782622
    C      2.27992826     -4.79283396     -1.70233758
    H      2.51447658     -3.79244900     -2.00086261
    H      1.44471839     -5.14767726     -2.26926773
    H      3.12502796     -5.42503039     -1.87850019
    C      1.92811943     -4.81204115     -0.20318394
    N      1.66618176     -4.82634178      0.91300408
    C      0.53539853      2.08286432     -0.78077740
    H      0.66947064      1.16437713     -1.31304250
    H      1.03513524      2.87294926     -1.30128495
    H     -0.50881692      2.30586964     -0.71162682
    C      1.12607836      1.94670638      0.63490560
    N      1.56586634      1.84533060      1.68894594
    C     -4.36408489     -3.61142365     -3.45241932
    H     -4.70274344     -2.88525024     -4.16156157
    H     -4.94855527     -4.50260851     -3.54772420
    H     -3.33500230     -3.83825630     -3.63798619
    C     -4.51657922     -3.04746009     -2.02753666
    N     -4.63011819     -2.62756358     -0.96664676
    C      1.29562311     -3.93654426      4.53927192
    H      0.71739230     -3.10032353      4.87286478
    H      1.38777011     -4.64645686      5.33452794
    H      0.80875136     -4.39675988      3.70497187
    C      2.69595428     -3.45596624      4.11534105
    N      3.73856449     -3.09815407      3.79970525
    C      1.04078757      3.32670591      4.86175812
    H      0.37008268      4.15913922      4.90769177
    H      1.15397493      2.90553103      5.83884534
    H      0.64558066      2.58645844      4.19787239
    C      2.41200103      3.80020504      4.34487107
    N      3.43293178      4.15274666      3.96002516
    C      4.97021884      3.05516470      1.14969331
    H      4.33102918      2.54205357      1.83748233
    H      5.41361813      3.89872568      1.63621261
    H      5.73975345      2.39141428      0.81480385
    C      4.14445456      3.53486921     -0.05844448
    N      3.52963552      3.89203102     -0.95795799
    C      3.75895060      0.67982916     -2.36898386
    H      3.21610853      0.76829494     -1.45116227
    H      3.16773767      1.06806269     -3.17187930
    H      4.67186956      1.23342504     -2.29820497
    C      4.07722175     -0.80302840     -2.63626076
    N      4.31418908     -1.90708325     -2.83526056
    C      1.16923184     -1.49476332      1.69101389
    H      0.74162775     -2.41993273      2.01676916
    H      0.56523544     -0.68166147      2.03590927
    H      2.15767138     -1.39884638      2.08936839
    C      1.23135146     -1.47151849      0.15244286
    N      1.27760233     -1.45421165     -0.99309321
    C     -1.78699788     -3.88269652      0.83513497
    H     -1.66374391     -2.85849745      1.11925627
    H     -1.14299198     -4.49745335      1.42862426
    H     -2.80397329     -4.17630805      0.99150751
    C     -1.42759352     -4.04940646     -0.65303044
    N     -1.16000064     -4.17352959     -1.76103724
    C     -5.43417956      1.08032050     -1.35313645
    H     -6.42600307      1.05553096     -0.95242235
    H     -5.12227813      2.09708691     -1.47062120
    H     -4.76681140      0.57748457     -0.68479906
    C     -5.41611127      0.37632195     -2.72268367
    N     -5.40265860     -0.14783697     -3.74237382
    C     -1.58478908      0.60166689      3.86449196
    H     -2.56426868      1.00888305      3.72415346
    H     -0.93586224      0.95932793      3.09256475
    H     -1.20571916      0.90488952      4.81804381
    C     -1.65461766     -0.93560117      3.80507070
    N     -1.70660821     -2.08016712      3.76082886
    C     -4.79342090     -1.58931342      2.20718373
    H     -4.75628625     -1.92339386      3.22301416
    H     -3.89387011     -1.87672438      1.70409089
    H     -5.63410197     -2.03328193      1.71621898
    C     -4.93159566     -0.05584488      2.17584708
    N     -5.03447305      1.08589214      2.15251552
    C      3.84820829      0.43223432      4.08855499
    H      4.27593464      1.22359723      4.66794699
    H      3.72354959      0.75797089      3.07699432
    H      4.49733480     -0.41804966      4.11202881
    C      2.47775804      0.04821878      4.67677108
    N      1.45739553     -0.23769825      5.11472471
    C     -2.75361344      0.78629341     -5.82864804
    H     -1.83081536      1.32751213     -5.84929247
    H     -3.36962434      1.16162157     -5.03835794
    H     -3.25946211      0.90798113     -6.76363911
    C     -2.46711316     -0.70799099     -5.59067381
    N     -2.25380068     -1.82055365     -5.41349118
    C     -0.52865126      3.88612604     -3.92685804
    H      0.10415586      4.32581449     -3.18447714
    H     -0.90023137      4.65049979     -4.57690427
    H      0.03134849      3.17442426     -4.49675271
    C     -1.71060602      3.17749386     -3.23952742
    N     -2.59062506      2.64988499     -2.72777853
    C     -3.11057102      3.39450144      0.60184894
    H     -4.09706006      3.55864692      0.98236941
    H     -3.02723899      2.38770643      0.24926042
    H     -2.92222264      4.07168074     -0.20490516
    C     -2.08177912      3.63265530      1.72277265
    N     -1.31579678      3.80997168      2.55735130
