120
Energy:   -591.35859127
    C      5.71913518     -4.88821655      1.82334292
    H      6.06656375     -3.99160585      1.35399997
    H      6.40523967     -5.68450981      1.62315110
    H      5.65013375     -4.73403758      2.87992549
    C      4.33092816     -5.25450180      1.26628241
    N      3.29734494     -5.52721782      0.85152554
    C      0.91941553     -1.74155120     -4.62456134
    H      0.98857975     -2.80181406     -4.75089088
    H      1.88741436     -1.30342697     -4.75075374
    H      0.24774480     -1.33856992     -5.35350826
    C      0.39337887     -1.42612788     -3.21197733
    N      0.00172067     -1.19128088     -2.16024434
    C     -0.54504784      5.84215499     -1.67044885
    H     -0.58435671      5.14275586     -0.86162511
    H     -0.97851620      6.77015534     -1.36090138
    H      0.47407059      6.00177041     -1.95473681
    C     -1.33137214      5.28341226     -2.87090737
    N     -1.91682633      4.86740290     -3.76470330
    C      0.73056942      2.24294336     -3.78817518
    H      0.17915786      2.94351558     -4.37982037
    H      0.05261060      1.56144441     -3.31824955
    H      1.40514014      1.69903394     -4.41588210
    C      1.52906764      2.99831643     -2.70955934
    N      2.12358586      3.56072601     -1.90648082
    C      1.69032004     -3.55697397      3.49253782
    H      1.96073948     -4.58256612      3.35134911
    H      0.62521348     -3.46089919      3.45765597
    H      2.04773060     -3.22156235      4.44367179
    C      2.31967252     -2.70190428      2.37702392
    N      2.78825405     -2.06526602      1.54647311
    C     -2.68212033      0.17378993     -0.78117286
    H     -3.55158317      0.31480764     -0.17367920
    H     -2.04018093     -0.54919193     -0.32279512
    H     -2.97615562     -0.17342832     -1.74961585
    C     -1.93146428      1.51112034     -0.92139717
    N     -1.37256673      2.50682362     -1.02580054
    C     -2.94552030     -3.03191428     -3.43046628
    H     -2.35398447     -3.85706317     -3.76827518
    H     -2.43855867     -2.11576462     -3.65082689
    H     -3.89242441     -3.04430726     -3.92858083
    C     -3.16370178     -3.14505094     -1.91020416
    N     -3.32614782     -3.22928633     -0.77829990
    C      2.33338230      0.28179662      4.46447425
    H      1.57015015     -0.31207250      4.00654814
    H      1.88507421      0.97821486      5.14191103
    H      3.00665575     -0.35411214      5.00040521
    C      3.10808548      1.04943719      3.37720108
    N      3.68488722      1.62098049      2.56767679
    C      1.11076872      4.09399580      1.41269879
    H      0.63277683      3.65464252      0.56217387
    H      2.16858279      3.94955429      1.34152915
    H      0.89498128      5.14161445      1.44150933
    C      0.58682986      3.42643501      2.69778659
    N      0.19673356      2.92940565      3.65459287
    C      4.91943577      1.34196006     -1.09383545
    H      4.82018199      2.40433414     -1.17389904
    H      5.94958434      1.07128049     -1.19594126
    H      4.55932381      1.02106880     -0.13871908
    C      4.09793373      0.66435411     -2.20630323
    N      3.48628811      0.15984569     -3.03458606
    C      3.33647585     -3.02961378     -1.73713157
    H      3.20819994     -4.08043736     -1.58151901
    H      3.30846652     -2.81829440     -2.78568233
    H      2.54943729     -2.49746961     -1.24489994
    C      4.69415937     -2.58724432     -1.16041263
    N      5.70501646     -2.25788015     -0.73101917
    C      1.46618239      0.64344509      0.06655855
    H      2.04883177      1.44358928      0.47299324
    H      0.93946739      0.98930130     -0.79822690
    H      2.11203163     -0.16410467     -0.20847097
    C      0.45613681      0.15632830      1.12207982
    N     -0.29588804     -0.20635228      1.90796339
    C      0.01107552     -4.11166495     -0.06776460
    H      0.77660070     -4.62996167      0.47097458
    H     -0.94798153     -4.40107735      0.30819968
    H      0.13936082     -3.05667882      0.05651833
    C      0.10498197     -4.46755963     -1.56313096
    N      0.17489958     -4.73253940     -2.67649918
    C     -6.28900978     -0.87595549     -0.25221565
    H     -6.09437469      0.06782288      0.21286472
    H     -5.73425464     -1.64159065      0.24873208
    H     -7.33456369     -1.09493433     -0.19086102
    C     -5.86275472     -0.81718261     -1.73088139
    N     -5.54538845     -0.77342352     -2.83181524
    C     -1.74775362      0.53938814      5.05745234
    H     -1.26805081      1.24206475      5.70632134
    H     -2.78344330      0.46484852      5.31569608
    H     -1.65577572      0.86950138      4.04381315
    C     -1.07992637     -0.83977832      5.21077107
    N     -0.58269862     -1.86663044      5.32492383
    C     -2.56861908     -2.77410242      2.49558239
    H     -2.43786674     -3.09758718      3.50709691
    H     -1.61200457     -2.58485449      2.05515875
    H     -3.07267954     -3.53676170      1.93954914
    C     -3.40814577     -1.48324020      2.47391064
    N     -4.03321154     -0.52213459      2.45777503
    C      6.07935264     -0.75203396      2.24767429
    H      5.32194657     -0.59800827      1.50773353
    H      6.91463903     -1.25259433      1.80423879
    H      6.39547109      0.19330948      2.63663958
    C      5.51228792     -1.61387245      3.39103425
    N      5.09008246     -2.25555039      4.24231772
    C     -3.78643227      2.06168747     -4.12994120
    H     -3.44286807      2.58253576     -3.26069965
    H     -4.71027067      1.56924078     -3.90876715
    H     -3.93598707      2.75894299     -4.92766746
    C     -2.73602219      1.01728178     -4.55119581
    N     -1.95394415      0.23967428     -4.86483902
    C     -4.69551131      5.07221660     -1.54094874
    H     -5.52806625      5.69403047     -1.28580177
    H     -4.55764138      5.07845134     -2.60201052
    H     -3.81287251      5.44471051     -1.06440270
    C     -4.96602473      3.63218077     -1.06690308
    N     -5.16743428      2.56000864     -0.71395454
    C     -3.04627643      2.72560850      2.23081981
    H     -3.19071057      2.81122394      3.28756432
    H     -2.25763622      2.02980306      2.03384137
    H     -3.94985025      2.37920993      1.77424400
    C     -2.67298008      4.10238341      1.65052619
    N     -2.39504399      5.12745492      1.21847122
