120
Energy:   -590.82651518
    C      5.08879041     -3.21609795      0.65673101
    H      6.05284894     -3.40915391      1.07889299
    H      5.09719829     -3.47013512     -0.38264068
    H      4.35334986     -3.80642372      1.16224241
    C      4.74764976     -1.72298760      0.81749337
    N      4.49365503     -0.61129908      0.93718826
    C      1.16897135     -1.83344639     -4.47593748
    H      0.69884858     -2.31803284     -3.64584067
    H      2.21309945     -2.06726586     -4.48084232
    H      0.72295192     -2.17387856     -5.38702019
    C      0.98476702     -0.30950833     -4.35231884
    N      0.84761852      0.82513282     -4.26027914
    C      1.61731917      5.55346038      1.70501655
    H      1.93562893      6.57496578      1.69473101
    H      1.39749611      5.23830422      0.70639074
    H      2.39633787      4.94117875      2.10892270
    C      0.35436514      5.41807310      2.57577334
    N     -0.58596155      5.31727111      3.22409135
    C     -1.84121204     -0.51306941     -2.30307194
    H     -1.41516074      0.34064650     -2.78737517
    H     -2.82131001     -0.69228160     -2.69318739
    H     -1.22438223     -1.36902557     -2.48128283
    C     -1.93157301     -0.25191307     -0.78806954
    N     -1.99885085     -0.05747030      0.33991860
    C      2.33727561     -4.65533227     -1.91223597
    H      2.31159473     -3.64127264     -2.25271173
    H      1.64019495     -5.23882045     -2.47661102
    H      3.32265911     -5.05098292     -2.04406542
    C      1.95929562     -4.70559220     -0.42018869
    N      1.67787234     -4.74301300      0.69070832
    C      0.71635417      2.18566102     -0.88195535
    H     -0.32391888      2.11783057     -1.12305945
    H      1.24347829      1.37860140     -1.34638406
    H      1.10492378      3.11700363     -1.23764297
    C      0.89565558      2.10441140      0.64541150
    N      1.02915363      2.04391737      1.78260555
    C     -4.20851674     -3.40354732     -3.92601035
    H     -4.52142177     -2.60505967     -4.56586041
    H     -4.79138973     -4.27645142     -4.13384828
    H     -3.17425211     -3.61555841     -4.09992721
    C     -4.40783427     -2.99130505     -2.45566046
    N     -4.55623524     -2.68437193     -1.36091812
    C      1.02764057     -4.14009126      4.22590061
    H      0.45596090     -3.31784092      4.60271212
    H      1.03764003     -4.92866912      4.94904932
    H      0.58672298     -4.49457821      3.31769921
    C      2.47063449     -3.67835743      3.94991074
    N      3.54500906     -3.33457560      3.74442374
    C      0.59388879      2.97634528      5.25249706
    H      0.15378956      3.83796828      5.70946387
    H      0.58334957      2.16075127      5.94502463
    H      0.03460867      2.71054826      4.37988215
    C      2.04741915      3.29264753      4.85399690
    N      3.12963857      3.52814893      4.55729542
    C      4.67709482      2.64740283      1.72046035
    H      3.88287996      2.11973370      2.20593767
    H      5.00449831      3.45230597      2.34482962
    H      5.49342705      1.97878642      1.54311079
    C      4.17404517      3.21070192      0.37835932
    N      3.79950184      3.63010370     -0.62089590
    C      4.03053823      0.58636341     -2.28054029
    H      4.96340871      1.10927670     -2.24568997
    H      3.52245882      0.70065200     -1.34582508
    H      3.42576636      0.98783701     -3.06665035
    C      4.28957650     -0.90855547     -2.54457949
    N      4.48244226     -2.02159053     -2.74116868
    C      1.08214914     -1.44799630      1.59895863
    H      0.58764870     -2.35830667      1.86673565
    H      0.51092867     -0.61474949      1.95152922
    H      2.05536657     -1.42677378      2.04313937
    C      1.21528523     -1.36762682      0.06683085
    N      1.31441111     -1.30778808     -1.07390792
    C     -1.77983330     -3.85886738      0.44213539
    H     -1.69882406     -2.83990739      0.75845520
    H     -1.14340181     -4.47144514      1.04595866
    H     -2.79336804     -4.18540758      0.54710172
    C     -1.35367850     -3.97378043     -1.03325848
    N     -1.03638688     -4.05933843     -2.13175628
    C     -5.35899705      1.39497485     -1.46591834
    H     -6.24124787      1.12887762     -0.92211144
    H     -5.37033775      2.44480245     -1.67239468
    H     -4.49459756      1.15553835     -0.88249502
    C     -5.31698230      0.61159714     -2.79111800
    N     -5.28570041      0.02833684     -3.77778938
    C     -1.81726711      0.42515687      3.75754268
    H     -1.41886573      0.66092998      4.72221235
    H     -2.80652808      0.82404758      3.67299673
    H     -1.19425984      0.85295109      3.00007773
    C     -1.86353580     -1.10399119      3.58100542
    N     -1.89798494     -2.24251143      3.44956540
    C     -4.90750929     -1.67106505      1.77328748
    H     -4.93649877     -2.10447413      2.75115064
    H     -3.98190192     -1.92249388      1.29901580
    H     -5.72118168     -2.05009129      1.19089977
    C     -5.02688903     -0.13989324      1.88669534
    N     -5.11577268      1.00013378      1.97113265
    C      3.85000060      0.00158123      4.50163070
    H      4.15730590      0.89393652      5.00577915
    H      4.00652775      0.11459596      3.44919257
    H      4.42431645     -0.82674067      4.86071736
    C      2.35584044     -0.25323619      4.77394208
    N      1.24337028     -0.44295933      4.97669028
    C     -2.69563864      1.09112183     -5.99016187
    H     -1.82508276      1.70481163     -5.88809580
    H     -3.41605585      1.36794842     -5.24903761
    H     -3.11595753      1.22757245     -6.96464242
    C     -2.30678038     -0.38694560     -5.80120177
    N     -2.01725773     -1.48743399     -5.66051239
    C     -0.52948019      4.19418494     -3.77618259
    H     -0.22610597      4.87851832     -3.01162252
    H     -0.81032730      4.74010597     -4.65253538
    H      0.28247089      3.53766655     -4.00988785
    C     -1.73050710      3.36843248     -3.27892286
    N     -2.62472623      2.75362225     -2.90869039
    C     -2.85659136      3.43719725      1.19784967
    H     -2.45707918      2.45125979      1.31281714
    H     -3.83138951      3.37828843      0.76058842
    H     -2.92335839      3.90893812      2.15592159
    C     -1.93251334      4.26204210      0.28280280
    N     -1.24449525      4.87617659     -0.39849119
