120
Energy:   -590.64041645
    C      4.93118184     -2.48675433     -0.01010678
    H      5.84849043     -2.63225914      0.52118738
    H      5.06360203     -2.76778577     -1.03401366
    H      4.16488645     -3.09061872      0.42925442
    C      4.52324891     -1.00374501      0.06653578
    N      4.21952430      0.10042284      0.12359964
    C      0.56134770     -2.33833571     -4.53343241
    H     -0.04031117     -2.75746849     -5.31268494
    H      0.24679234     -2.73154865     -3.58932564
    H      1.58772862     -2.59029893     -4.70063238
    C      0.40278973     -0.80652372     -4.53005631
    N      0.28473611      0.33397994     -4.52754265
    C      1.66903917      5.69788899      1.53820241
    H      2.60105033      5.42416294      1.98689990
    H      1.69492585      6.73203853      1.26477288
    H      1.50507562      5.10201651      0.66473173
    C      0.52636526      5.46105813      2.54309419
    N     -0.32440741      5.28472678      3.29128179
    C     -2.09644456     -0.81611739     -2.06421890
    H     -1.53406838     -1.71113649     -2.23027315
    H     -1.68348626     -0.02157268     -2.64993490
    H     -3.11519214     -0.97697878     -2.34913307
    C     -2.03396206     -0.43998854     -0.57216560
    N     -1.98744100     -0.15994351      0.53873589
    C      2.21648539     -4.80110838     -2.00502306
    H      3.04484822     -5.44158237     -2.22526903
    H      2.43646769     -3.80728776     -2.33491315
    H      1.34414451     -5.15974288     -2.51029701
    C      1.96317041     -4.79349777     -0.48601892
    N      1.77456590     -4.78783132      0.64494872
    C      0.91929228      1.93430020     -0.76846837
    H      1.63381934      1.25558573     -1.18523920
    H      1.04938966      2.90212306     -1.20583855
    H     -0.06974908      1.58069242     -0.97257086
    C      1.12714502      2.02713127      0.75461391
    N      1.28190084      2.09624822      1.88861790
    C     -4.67853117     -3.67805104     -3.21524327
    H     -5.05725601     -2.88167987     -3.82126361
    H     -5.30247438     -4.53993255     -3.32817787
    H     -3.68165542     -3.91671889     -3.52212351
    C     -4.67019460     -3.24026104     -1.73880485
    N     -4.66398764     -2.91430648     -0.63952933
    C      1.68314888     -3.98137288      4.19898886
    H      1.09640503     -3.17507077      4.58694343
    H      1.89889214     -4.67549519      4.98419467
    H      1.13827434     -4.47809438      3.42356731
    C      3.00132675     -3.42791932      3.62654127
    N      3.98277009     -3.01584798      3.20032802
    C      1.24548312      3.16369607      5.32738957
    H      0.58371568      2.81169877      4.56380465
    H      0.79561185      3.99075301      5.83581041
    H      1.43501131      2.37581829      6.02612182
    C      2.57263533      3.61392117      4.68898188
    N      3.56076047      3.94913421      4.21365833
    C      4.78865127      3.33171479      1.00859437
    H      4.03752617      3.03800535      1.71176294
    H      5.28446598      4.21123853      1.36286101
    H      5.50108002      2.54125581      0.89670614
    C      4.13074137      3.62625067     -0.35228886
    N      3.64089754      3.84554602     -1.36552828
    C      3.65836866      0.85661858     -3.31977315
    H      4.06970554      1.23993744     -2.40940575
    H      2.61680286      1.09657074     -3.36939916
    H      4.16568215      1.29591048     -4.15317267
    C      3.83527532     -0.67268043     -3.35912509
    N      3.96699036     -1.81131305     -3.38842439
    C      1.14377650     -1.45979202      1.43212309
    H      0.75898525     -2.38597156      1.80498678
    H      0.52499784     -0.65476649      1.76968192
    H      2.14154776     -1.31760556      1.79147613
    C      1.15212221     -1.49006306     -0.10755675
    N      1.15833597     -1.51260123     -1.25391837
    C     -1.71342892     -4.00364859      0.85455116
    H     -0.96648738     -4.52493931      1.41600862
    H     -2.68068147     -4.38459179      1.10793600
    H     -1.66947683     -2.95980151      1.08552861
    C     -1.45960349     -4.20746602     -0.65065019
    N     -1.27061892     -4.35921736     -1.77134102
    C     -5.38461490      1.37102969     -0.83147708
    H     -6.22749790      1.23466564     -0.18661022
    H     -5.33208413      2.39479840     -1.13813201
    H     -4.48894194      1.10910995     -0.30796291
    C     -5.53619828      0.47079738     -2.07172071
    N     -5.64905899     -0.19946650     -2.99513847
    C     -1.39628263      0.53390606      3.95741266
    H     -2.39439946      0.90111239      4.07498173
    H     -0.96218694      0.95687187      3.07561906
    H     -0.81194929      0.80986434      4.81023190
    C     -1.42551705     -1.00052754      3.82990226
    N     -1.44728341     -2.14298309      3.73496497
    C     -4.66080551     -1.70660225      2.43942926
    H     -4.56880236     -2.10598842      3.42782508
    H     -3.79762134     -1.97224195      1.86562815
    H     -5.53638737     -2.10734378      1.97288695
    C     -4.77537808     -0.17269118      2.51419513
    N     -4.86068257      0.96937534      2.56986171
    C      4.02838640      0.48249214      3.60642689
    H      4.54756286      1.19306190      4.21507015
    H      3.76569155      0.93627684      2.67370509
    H      4.66010775     -0.36221313      3.42670425
    C      2.75003583      0.02243546      4.33152528
    N      1.79824572     -0.32009765      4.87139399
    C     -3.33247178      0.71289409     -5.58239874
    H     -2.42146657      1.27402412     -5.59253653
    H     -3.92952407      1.01717342     -4.74822745
    H     -3.87079380      0.89035679     -6.48993138
    C     -3.00954743     -0.78806475     -5.46222218
    N     -2.76911557     -1.90559684     -5.37274528
    C     -0.58791144      3.71165282     -3.67148887
    H     -0.23347809      4.45169587     -2.98474767
    H     -0.86993994      4.18310249     -4.58969050
    H      0.18790370      2.99926207     -3.85992822
    C     -1.80871629      2.99331780     -3.06714600
    N     -2.71766100      2.45848473     -2.61718527
    C     -2.72134994      3.35283992      1.43511400
    H     -3.73898748      3.47996712      1.12990473
    H     -2.58592270      3.77397694      2.40938407
    H     -2.48452119      2.30970949      1.46138468
    C     -1.79248132      4.06507857      0.43435471
    N     -1.10089641      4.59537263     -0.31075608
