120
Energy:   -589.66100719
    C      5.61773538     -4.84607315      0.95519257
    H      6.07265361     -4.22684175      0.21054362
    H      6.12768950     -5.78576991      0.99780570
    H      5.68029227     -4.36280319      1.90778686
    C      4.13900268     -5.08039048      0.59457504
    N      3.03801898     -5.25485038      0.32607889
    C      0.06235526     -1.68132724     -4.84803647
    H      0.05704334     -2.74868587     -4.92298665
    H      0.98122764     -1.30064609     -5.24256719
    H     -0.75834878     -1.28055033     -5.40546077
    C     -0.07128884     -1.26984342     -3.37005802
    N     -0.17079294     -0.96347501     -2.26963587
    C      0.65718308      5.53468158     -1.58168137
    H     -0.31706001      5.09447824     -1.62608407
    H      0.79489613      6.18168249     -2.42270695
    H      0.75255077      6.09939920     -0.67785721
    C      1.72390471      4.42427446     -1.60815771
    N      2.51812746      3.59752590     -1.62787056
    C      0.22102346      2.22574949     -4.05098709
    H      1.18917912      2.60700624     -4.30042264
    H     -0.07545817      1.50073446     -4.77992532
    H      0.25648928      1.76658104     -3.08516847
    C     -0.79673111      3.38136582     -4.03291701
    N     -1.55449565      4.24177471     -4.01946301
    C      1.74891486     -3.63408214      3.30917649
    H      1.71911543     -4.44055723      2.60660258
    H      1.29883244     -2.76590851      2.87489610
    H      1.21170626     -3.91039243      4.19232915
    C      3.21276741     -3.32520108      3.67431785
    N      4.30267217     -3.09522509      3.94618219
    C     -2.63076796      0.19424164     -0.54013041
    H     -1.95549616     -0.50127913     -0.08718556
    H     -2.93780532     -0.17727646     -1.49543217
    H     -3.48885493      0.31820756      0.08694079
    C     -1.92574525      1.55156410     -0.71962609
    N     -1.40082379      2.56215237     -0.85326878
    C     -3.41487838     -2.96153120     -3.11511193
    H     -2.94021989     -2.04815696     -3.40725401
    H     -4.41606573     -2.97967785     -3.49219771
    H     -2.86855962     -3.79074413     -3.51366032
    C     -3.44336109     -3.05654312     -1.57830957
    N     -3.46456776     -3.12728381     -0.43409037
    C      2.57476119      0.12099174      4.51790003
    H      3.31893246     -0.45593398      5.02609883
    H      1.85504396     -0.53561858      4.07544201
    H      2.08585281      0.76729894      5.21658070
    C      3.24322945      0.96616378      3.41770259
    N      3.74093446      1.59543278      2.59855559
    C      0.95852972      3.89661529      1.79279518
    H      1.95334465      3.60863955      1.52388362
    H      0.89820999      4.96357626      1.84622646
    H      0.27151196      3.53701493      1.05550739
    C      0.60234659      3.29301349      3.16407139
    N      0.33715206      2.84360451      4.18504886
    C      4.77324700      1.06999820     -1.99436059
    H      5.68067469      0.51507380     -2.11069669
    H      4.40797597      0.95105671     -0.99569694
    H      4.96190562      2.10600082     -2.18411199
    C      3.72141743      0.54879109     -2.99115431
    N      2.93828251      0.16072871     -3.73331254
    C      3.08835412     -3.07811907     -2.55005617
    H      2.94769942     -2.90902741     -3.59720680
    H      2.41362844     -2.46023514     -1.99520142
    H      2.89643315     -4.10662427     -2.32590782
    C      4.53811769     -2.73049635     -2.16412347
    N      5.61753256     -2.47167543     -1.87677903
    C      1.54117717      0.73832663     -0.06513276
    H      0.96116951      1.41743686     -0.65445491
    H      1.87508184     -0.07159130     -0.67949398
    H      2.38822710      1.25140176      0.34003316
    C      0.67626127      0.18814633      1.08413750
    N      0.03229207     -0.22148792      1.93982144
    C      0.09371873     -3.55827484     -0.04354036
    H     -0.56720607     -2.72986961      0.10418692
    H      1.10612355     -3.23187952      0.07222515
    H     -0.12061472     -4.31865225      0.67811501
    C     -0.10367016     -4.12595036     -1.46141981
    N     -0.25063516     -4.54861059     -2.51709551
    C     -6.30850429     -0.78305592      0.53865941
    H     -7.35409782     -0.95656623      0.68538541
    H     -6.02404568      0.12148785      1.03442444
    H     -5.75089403     -1.60190583      0.94295475
    C     -6.01558039     -0.65666564     -0.96793313
    N     -5.79748524     -0.56256233     -2.08965976
    C     -1.51006102      0.37667659      5.31481627
    H     -1.46043955      0.73591870      4.30814701
    H     -1.04842233      1.08580634      5.96973901
    H     -2.53389198      0.24492051      5.59643588
    C     -0.77234094     -0.97135238      5.41574676
    N     -0.22307480     -1.97502123      5.49089411
    C     -2.25345210     -2.84947449      2.78782530
    H     -2.31441826     -3.28105158      3.76502769
    H     -1.23117465     -2.63496777      2.55580211
    H     -2.64549843     -3.53802689      2.06873256
    C     -3.07276957     -1.54605236      2.75028021
    N     -3.68278867     -0.57559534      2.72232619
    C      5.87062648     -0.93370471      1.42267020
    H      6.16227583     -1.36334542      2.35821800
    H      5.88391933      0.13336734      1.50064227
    H      6.55325937     -1.24408075      0.65940213
    C      4.44925404     -1.40442068      1.06249401
    N      3.39097766     -1.75489011      0.79432648
    C     -4.50200480      2.25049949     -3.38148547
    H     -4.26674242      3.22692840     -3.75045480
    H     -4.43571196      2.24722878     -2.31354650
    H     -5.49578887      1.98706692     -3.67795737
    C     -3.50571092      1.22902329     -3.96078237
    N     -2.76392484      0.46848783     -4.39209524
    C     -3.50639193      5.33701900     -1.12836631
    H     -3.56760353      6.25128943     -1.68087233
    H     -4.48026431      5.06666707     -0.77710924
    H     -3.12787661      4.56215914     -1.76178358
    C     -2.56142221      5.52547702      0.07293124
    N     -1.85784930      5.66579257      0.96735186
    C     -3.04806616      2.75375025      2.68740964
    H     -2.72669046      3.76132508      2.84992363
    H     -2.20917421      2.15316183      2.40376734
    H     -3.47588859      2.36613505      3.58831003
    C     -4.10224159      2.72587014      1.56511875
    N     -4.88712312      2.70511212      0.72952216
