120
Energy:   -597.82049179
    C      4.96228893     -3.04313822      0.66260209
    H      4.32368937     -3.81455920      1.03943157
    H      4.76149384     -2.12893383      1.18107173
    H      5.98452808     -3.32126606      0.81283896
    C      4.69912908     -2.84834306     -0.84219083
    N      4.50319460     -2.70330921     -1.96257756
    C      1.31000353     -1.80329528     -4.42316080
    H      2.20611748     -2.04617800     -3.89128869
    H      1.42831227     -2.05702351     -5.45588735
    H      0.49055061     -2.35494185     -4.01196491
    C      1.02939229     -0.29458535     -4.29411930
    N      0.82046448      0.82871776     -4.19804204
    C      1.12813314      5.62645407      1.80060759
    H      1.66150972      4.72063039      2.00034011
    H      0.50397650      5.86454608      2.63645433
    H      1.82480972      6.42205406      1.63763065
    C      0.25609353      5.44241893      0.54471030
    N     -0.39317959      5.30539640     -0.39036231
    C     -1.81995185     -0.59178968     -2.25185294
    H     -1.22981240     -1.45367309     -2.48378522
    H     -1.37929785      0.27360884     -2.70108401
    H     -2.81117667     -0.72539887     -2.63201216
    C     -1.87690121     -0.40455110     -0.72433912
    N     -1.91930260     -0.26514347      0.41296436
    C      2.02574544     -5.04820613     -1.94782858
    H      1.88795769     -4.07429868     -2.36903994
    H      1.29858820     -5.71914538     -2.35523743
    H      3.00809252     -5.40215526     -2.18152350
    C      1.85677388     -4.97483155     -0.41888621
    N      1.73096687     -4.92020085      0.71948089
    C      0.55728276      2.06071910     -0.64857547
    H      0.80293185      1.15524093     -1.16303246
    H      1.03520479      2.88676672     -1.13245041
    H     -0.50307328      2.20323020     -0.66389657
    C      1.04200218      1.96993008      0.81032975
    N      1.40289781      1.90233353      1.89655100
    C     -4.27031906     -3.41004805     -3.83851422
    H     -4.58152345     -2.62655537     -4.49744612
    H     -4.85826335     -4.28500354     -4.02201762
    H     -3.23774751     -3.63165803     -4.01051448
    C     -4.46234862     -2.95945645     -2.37848276
    N     -4.60532335     -2.62397052     -1.29142298
    C      1.31170334     -4.07947302      4.42111881
    H      0.72656636     -3.28126890      4.82779445
    H      1.39375877     -4.86514616      5.14284156
    H      0.83837701     -4.45454933      3.53784136
    C      2.71700328     -3.55767786      4.06832725
    N      3.76331296     -3.16917764      3.80565789
    C      0.73189779      3.06835697      5.18481963
    H      0.03703761      3.86846007      5.33282144
    H      0.83330835      2.51148246      6.09284264
    H      0.37390019      2.42392382      4.40929225
    C      2.10127299      3.64579264      4.78111230
    N      3.12083507      4.07571974      4.48053384
    C      4.71335027      3.52826253      1.58780812
    H      4.13081152      2.84471100      2.16944898
    H      4.86212259      4.43137402      2.14202425
    H      5.66200226      3.08713952      1.36337772
    C      3.97229867      3.84714823      0.27603283
    N      3.42055206      4.08457313     -0.70064351
    C      3.85384056      0.80480057     -2.30420599
    H      3.09236817      1.54266973     -2.44776463
    H      3.55716225     -0.10988360     -2.77349689
    H      4.76946052      1.14796602     -2.73869034
    C      4.05897864      0.56537985     -0.79682545
    N      4.21171326      0.38712025      0.32548787
    C      1.34027140     -1.58022403      1.55272512
    H      0.76068527     -0.76710530      1.93719624
    H      2.35022517     -1.49142010      1.89478702
    H      0.92760590     -2.50592378      1.89577941
    C      1.31479351     -1.54600272      0.01331622
    N      1.29582406     -1.52052340     -1.13284369
    C     -1.71433804     -3.96700288      0.52984493
    H     -1.48894810     -2.97640486      0.86572455
    H     -1.10726264     -4.67034015      1.06057578
    H     -2.74729258     -4.17884981      0.71157245
    C     -1.42578295     -4.07554261     -0.97898081
    N     -1.21094058     -4.15635536     -2.10237015
    C     -5.37549907      1.07570334     -1.46797431
    H     -6.37578625      0.99621756     -1.09648036
    H     -5.08499711      2.10521395     -1.49278575
    H     -4.71265285      0.53343058     -0.82651174
    C     -5.30794189      0.48884413     -2.89016709
    N     -5.25764250      0.05190077     -3.94905425
    C     -1.61076872      0.32704249      3.76640986
    H     -2.59715857      0.70292378      3.59134273
    H     -0.93618491      0.74870912      3.05084503
    H     -1.29691875      0.59512564      4.75359207
    C     -1.61371044     -1.20667240      3.62744944
    N     -1.61590069     -2.34859285      3.52398709
    C     -4.74017680     -1.82726531      1.96376817
    H     -4.69278025     -2.20311639      2.96446279
    H     -3.82958833     -2.05942253      1.45207417
    H     -5.56286003     -2.28040370      1.45116989
    C     -4.93491060     -0.30000461      1.99773124
    N     -5.07989876      0.83711041      2.02301828
    C      3.80187048      0.37214605      3.96846292
    H      4.17301115      1.23223214      4.48557674
    H      3.66500030      0.60938046      2.93411023
    H      4.50406684     -0.42993937      4.06054083
    C      2.45405589     -0.05277253      4.58037795
    N      1.45054666     -0.36914373      5.03597652
    C     -2.50685660      1.05140974     -5.87639501
    H     -1.59815743      1.61502784     -5.83765679
    H     -3.15685419      1.36804786     -5.08763488
    H     -2.98609288      1.21177202     -6.81953636
    C     -2.18945090     -0.44630566     -5.70995521
    N     -1.95312794     -1.56142285     -5.58603321
    C     -0.45541635      4.12363598     -3.65768967
    H     -0.63702642      4.34662869     -4.68831677
    H      0.43852386      3.54207640     -3.57075032
    H     -0.34216078      5.03582751     -3.10998638
    C     -1.64364473      3.32682891     -3.08776703
    N     -2.52833476      2.73356982     -2.66343373
    C     -3.13430876      3.24873933      0.70625816
    H     -4.16537291      3.35719093      0.97091858
    H     -2.96156221      2.25698063      0.34366695
    H     -2.88576408      3.95597646     -0.05724710
    C     -2.25669001      3.50214894      1.94608432
    N     -1.60326296      3.69082391      2.86919125
