120
Energy:   -588.87002570
    C      5.12238568     -5.36989322      1.62610714
    H      5.73645775     -4.82227863      0.94205017
    H      5.51486076     -6.35816714      1.74517457
    H      5.11349991     -4.87308994      2.57373926
    C      3.68649652     -5.45069867      1.07538688
    N      2.61741178     -5.51086200      0.66535062
    C      0.65947477     -1.67536627     -4.73829973
    H      0.54100194     -2.73403838     -4.83868761
    H      1.67530701     -1.40910720     -4.94345833
    H      0.01336905     -1.17694912     -5.43041738
    C      0.29785662     -1.25223120     -3.30240662
    N      0.02861548     -0.93718791     -2.23331893
    C      0.45968918      5.98058832     -2.02053340
    H      1.44130593      5.97105316     -2.44625377
    H      0.43985318      5.35082066     -1.15572225
    H      0.20246752      6.98048946     -1.73958178
    C     -0.55435101      5.46159537     -3.05685806
    N     -1.30935003      5.07518152     -3.82844887
    C      0.99176985      2.21486337     -3.73851588
    H      1.53349177      1.47000566     -4.28314834
    H      0.69548911      2.99846020     -4.40416806
    H      0.12233439      1.77303381     -3.29832535
    C      1.88985676      2.79501334     -2.63015406
    N      2.55852329      3.22696137     -1.80492831
    C      1.11637650     -3.83598391      3.48783105
    H      1.12682916     -4.65001925      2.79346991
    H      0.75002721     -2.95647752      3.00084459
    H      0.47919407     -4.07872536      4.31243655
    C      2.54567051     -3.58084657      4.00127389
    N      3.60984487     -3.39088523      4.38355543
    C     -2.53071742      0.45874759     -0.79927712
    H     -1.90923787     -0.25701785     -0.30294740
    H     -2.76646195      0.10607693     -1.78159429
    H     -3.43433256      0.59355705     -0.24231645
    C     -1.78535587      1.80247443     -0.90142570
    N     -1.23040031      2.80294014     -0.97747997
    C     -3.15534633     -2.61203833     -3.45108106
    H     -2.60480834     -1.71515880     -3.64451118
    H     -4.09850502     -2.56715800     -3.95440654
    H     -2.60069490     -3.45485290     -3.80734569
    C     -3.38854988     -2.75444583     -1.93551641
    N     -3.56218052     -2.86047469     -0.80710964
    C      2.21963462      0.01021659      4.59710072
    H      1.57127890     -0.65778923      4.06955615
    H      1.63334382      0.72266057      5.13893628
    H      2.82571175     -0.54666876      5.28080263
    C      3.12430627      0.74775882      3.59251091
    N      3.79787543      1.29689253      2.84454814
    C      1.29429207      4.09162809      1.40566046
    H      0.87932558      3.72666188      0.48941669
    H      2.35665463      3.96479755      1.39155738
    H      1.06048254      5.13008980      1.51442389
    C      0.69903556      3.30483782      2.58812854
    N      0.25584003      2.71903670      3.46852977
    C      5.03335039      0.67491609     -1.09530713
    H      5.35973126      1.67222219     -1.30448708
    H      5.88512828      0.03762708     -0.98025828
    H      4.45929912      0.66950766     -0.19234812
    C      4.16388568      0.16454381     -2.25941676
    N      3.51652967     -0.21545156     -3.12614930
    C      3.20422231     -3.45144653     -2.19187394
    H      3.21312504     -3.28046086     -3.24808643
    H      2.52635908     -2.76739907     -1.72552685
    H      2.88939652     -4.45508561     -1.99567910
    C      4.62014168     -3.23756466     -1.62528158
    N      5.67435801     -3.07831989     -1.20342782
    C      1.46543106      0.59510215      0.21611291
    H      2.21097329      1.14184167      0.75476202
    H      0.91468719      1.26527439     -0.41034495
    H      1.93742004     -0.15126593     -0.38808920
    C      0.50575404     -0.08213020      1.21209302
    N     -0.20876912     -0.58636046      1.95364548
    C     -0.13108941     -3.61007750     -0.02678678
    H      0.86593242     -3.29530492      0.20073441
    H     -0.41943107     -4.39322261      0.64287128
    H     -0.80025245     -2.78240692      0.08312833
    C     -0.18796462     -4.12719902     -1.47625238
    N     -0.23031080     -4.51221950     -2.55544541
    C     -6.33235567     -0.44561998     -0.15230688
    H     -6.10409007      0.41867392      0.43573313
    H     -5.83548781     -1.29888835      0.25994853
    H     -7.38941496     -0.61144838     -0.14723816
    C     -5.85462974     -0.22281917     -1.59928225
    N     -5.49894108     -0.05693385     -2.67662119
    C     -1.74097516      0.50977451      4.98074908
    H     -1.15169074      1.18940795      5.56018194
    H     -2.76956128      0.60112332      5.26104374
    H     -1.63266668      0.74034969      3.94151694
    C     -1.26459153     -0.93172207      5.23910203
    N     -0.90990226     -2.00498180      5.43145754
    C     -2.85053863     -2.81838982      2.57359577
    H     -3.08167938     -3.21726892      3.53918864
    H     -1.78859734     -2.75588646      2.45838682
    H     -3.25428601     -3.45857776      1.81725817
    C     -3.46517706     -1.41286566      2.43823912
    N     -3.92280330     -0.36638903      2.33745995
    C      5.68817100     -1.57850799      2.08067771
    H      6.40790863     -1.98950222      1.40394905
    H      5.78870096     -2.04821305      3.03680007
    H      5.85335480     -0.52612167      2.18115880
    C      4.26985515     -1.82560939      1.53394100
    N      3.21385452     -2.00958762      1.12687067
    C     -3.82504217      2.57201778     -3.96098876
    H     -3.89255764      2.60242879     -2.89355398
    H     -4.78004155      2.31865561     -4.37169898
    H     -3.52256654      3.53100715     -4.32670309
    C     -2.78872209      1.51267106     -4.37982671
    N     -2.01713468      0.72393928     -4.69167060
    C     -3.53238480      5.57344014     -1.11972656
    H     -3.36188316      4.64450142     -1.62262041
    H     -3.45944469      6.37768188     -1.82170522
    H     -4.50923939      5.56860547     -0.68311367
    C     -2.47681666      5.75986920     -0.01400502
    N     -1.69089820      5.89867410      0.80925492
    C     -3.10334758      2.92619544      2.43371434
    H     -3.57036961      2.60246939      3.34035211
    H     -2.71856684      3.91602354      2.56441713
    H     -2.30164046      2.26138533      2.18837314
    C     -4.13884238      2.92433602      1.29382529
    N     -4.90981532      2.92295159      0.44512607
