120
Energy:   -588.46230857
    C     -0.83748945     -1.87264227      3.25788435
    H     -0.89192972     -2.59072906      2.46650087
    H     -0.51150739     -2.35518101      4.15554305
    H     -0.14246759     -1.10308259      2.99402532
    C     -2.22862106     -1.25222862      3.48468762
    N     -3.26438178     -0.79030245      3.65355297
    C      2.17029623     -2.87901927     -3.41943079
    H      2.67331356     -2.49646670     -4.28287000
    H      2.36617746     -3.92692057     -3.32760214
    H      2.52472987     -2.37206872     -2.54634601
    C      0.65428257     -2.65104388     -3.56547805
    N     -0.47445851     -2.48130585     -3.67421688
    C      0.04343624      5.04581678      2.66041740
    H      0.68347248      5.80270353      2.25745805
    H      0.28317466      4.10237232      2.21619096
    H      0.18337889      4.98716388      3.71960340
    C     -1.42419702      5.39873737      2.35529504
    N     -2.51691670      5.66150280      2.12811757
    C     -5.22199089      1.48693097     -3.49827943
    H     -5.57689471      2.41645119     -3.89189806
    H     -5.98344394      0.74222659     -3.60076709
    H     -4.34945734      1.18137617     -4.03700067
    C     -4.87106694      1.66070514     -2.00889871
    N     -4.60978811      1.79008791     -0.89998707
    C      3.48871742     -2.50735673      4.54696955
    H      2.99191957     -2.35088563      5.48164001
    H      3.73039938     -1.56158309      4.10879019
    H      4.38723946     -3.06512220      4.70961923
    C      2.56269190     -3.29100125      3.59829785
    N      1.87322380     -3.87446021      2.89196864
    C      0.50155185      3.39563460     -3.84928164
    H      0.69261140      4.44081540     -3.97574720
    H      1.04033083      2.84239272     -4.58991631
    H      0.81979038      3.09028226     -2.87440561
    C     -1.00689835      3.12708895     -4.00439849
    N     -2.13000809      2.92714451     -4.11989004
    C     -3.29033617      4.92716932     -1.20161545
    H     -3.61707011      4.57976540     -2.15945450
    H     -3.30049400      5.99703086     -1.18775201
    H     -3.94739680      4.55439900     -0.44384721
    C     -1.85978521      4.42388013     -0.93361559
    N     -0.79467500      4.04915844     -0.73407751
    C     -2.86245167      2.16113030      1.96755650
    H     -3.00060360      2.60674918      2.93048850
    H     -3.52105013      1.32421176      1.86404548
    H     -3.07900930      2.88164459      1.20672732
    C     -1.40404304      1.68730648      1.82565775
    N     -0.31819153      1.33452310      1.72000769
    C      2.26964012      2.87305766      0.10359195
    H      1.86633550      3.86211404      0.04024346
    H      2.48186748      2.63922045      1.12593181
    H      1.55877357      2.17261392     -0.28234382
    C      3.56776728      2.79422182     -0.72118122
    N      4.53428196      2.73552495     -1.33526234
    C      6.22754431      0.08685426      0.08509503
    H      5.54686545      0.79627082      0.50735634
    H      7.01129308      0.60541432     -0.42650288
    H      6.64698446     -0.51314379      0.86546123
    C      5.47551911     -0.81696705     -0.90947277
    N      4.91560216     -1.48990310     -1.64997372
    C      3.93895460      0.64983165     -4.27439862
    H      3.54365875      0.72936337     -5.26551722
    H      4.53140473     -0.23780020     -4.19686383
    H      4.54742756      1.50432795     -4.06345831
    C      2.77945157      0.58305572     -3.26311543
    N      1.91614886      0.53333800     -2.51016912
    C      4.22750410     -4.58423154      0.14830430
    H      3.34771467     -4.95719879      0.62972528
    H      4.86130137     -5.40327829     -0.12069855
    H      3.95015807     -4.04363062     -0.73245044
    C      4.98072125     -3.64668197      1.11021113
    N      5.54152565     -2.94863370      1.82639449
    C     -2.25343565      0.92147052      6.42061405
    H     -3.22434064      0.70307922      6.02748696
    H     -2.33882384      1.19082502      7.45262960
    H     -1.62857407      0.05784088      6.32792677
    C     -1.63249555      2.09110480      5.63449126
    N     -1.17017741      2.96195069      5.04918711
    C      2.03626881      2.00969295      4.35821063
    H      1.62158107      2.13728440      3.38012337
    H      3.10173642      1.94108217      4.28770939
    H      1.77247357      2.84732506      4.96950730
    C      1.47929923      0.71923850      4.98758509
    N      1.06461007     -0.24156349      5.45618299
    C      1.85697827     -1.43148726      0.36421618
    H      1.16460556     -2.00626415      0.94313908
    H      2.50601427     -2.09078592     -0.17334929
    H      1.31964547     -0.81731826     -0.32785968
    C      2.69270980     -0.53928361      1.30076595
    N      3.31494991      0.12500255      1.99806983
    C     -0.94360106     -5.02400709      0.94375349
    H     -1.44736520     -5.94452937      0.73456313
    H     -1.64229708     -4.21528064      0.89194142
    H     -0.51789912     -5.06528110      1.92455592
    C      0.17435209     -4.80370055     -0.09222226
    N      1.00671903     -4.63967231     -0.86355331
    C     -1.28000088      0.43210882     -1.71391618
    H     -0.74328879      1.21650646     -1.22242799
    H     -2.24525844      0.78932974     -2.00643995
    H     -0.73791343      0.11820133     -2.58138512
    C     -1.44341678     -0.75917851     -0.75176768
    N     -1.56508734     -1.64614608     -0.03540438
    C     -3.06053896     -3.95999247     -2.30901422
    H     -2.77969061     -4.45095724     -3.21729720
    H     -3.76582695     -4.56582087     -1.77944846
    H     -2.19251812     -3.80970177     -1.70168266
    C     -3.69896544     -2.59773403     -2.63804854
    N     -4.17430297     -1.58347071     -2.88302956
    C     -4.95626666     -1.26438148      0.73468913
    H     -4.05769045     -0.68419327      0.70566142
    H     -5.53881643     -0.97737787      1.58507950
    H     -5.52035509     -1.09319324     -0.15828227
    C     -4.59924219     -2.75887521      0.83775235
    N     -4.33342125     -3.87159372      0.91448761
    C     -1.93008803     -0.21177516     -5.58890581
    H     -2.52610752      0.59499630     -5.96143872
    H     -2.15612268     -0.37477249     -4.55583306
    H     -2.14448506     -1.10017026     -6.14540122
    C     -0.43837046      0.14029683     -5.73865226
    N      0.67228108      0.40243043     -5.85014530
