120
Energy:   -587.93146162
    C      5.21700067     -5.08982664      1.89716834
    H      5.76690438     -4.53120899      1.16884670
    H      5.63332683     -6.07182578      1.98231120
    H      5.27425896     -4.59482441      2.84405448
    C      3.74394018     -5.19290715      1.46005599
    N      2.64717969     -5.26965528      1.13460598
    C      0.28973036     -2.62863380     -4.42197546
    H      0.29456948     -3.68306949     -4.24020050
    H      1.25413306     -2.32222752     -4.76974221
    H     -0.44660576     -2.39786593     -5.16322738
    C     -0.04548035     -1.88416251     -3.11622040
    N     -0.29505996     -1.32986980     -2.14402640
    C      0.40883437      5.38688894     -2.27631839
    H     -0.13180408      5.39739493     -1.35300919
    H      0.76718373      6.37196934     -2.49103080
    H      1.23795347      4.71525412     -2.19652310
    C     -0.52211895      4.92063999     -3.41101563
    N     -1.21525602      4.57349646     -4.25584930
    C      1.06022626      1.64260437     -3.89902131
    H      1.39372425      2.60187860     -3.56216493
    H      0.15156260      1.38422678     -3.39655692
    H      0.88724838      1.67552079     -4.95443320
    C      2.13699561      0.58646025     -3.58801109
    N      2.93869933     -0.19988706     -3.35644984
    C      1.27210635     -3.47126398      3.93317177
    H      1.21796472     -4.35136259      3.32704036
    H      0.93267266     -2.62801149      3.36871708
    H      0.65313333     -3.59462657      4.79720486
    C      2.72942163     -3.24068277      4.37437975
    N      3.81445910     -3.06900457      4.70287915
    C     -2.68386420      0.42638996     -0.76487246
    H     -2.14783502     -0.30329011     -0.19466207
    H     -2.97687098      0.00165641     -1.70223447
    H     -3.55498250      0.73215364     -0.22398376
    C     -1.77987405      1.64781364     -1.01492442
    N     -1.10681228      2.55721909     -1.20109947
    C     -3.35540134     -3.11295521     -3.05524135
    H     -3.06329152     -2.17268499     -3.47412552
    H     -4.28747489     -3.41943236     -3.48210169
    H     -2.60666185     -3.84677558     -3.26924119
    C     -3.51195740     -2.96899040     -1.52999896
    N     -3.62852051     -2.86180206     -0.39438668
    C      2.34255701      0.44705913      4.42017903
    H      1.68102502     -0.24002368      3.93521220
    H      1.77054920      1.16739073      4.96683115
    H      2.98058098     -0.08677828      5.09311449
    C      3.19965617      1.16753380      3.36287242
    N      3.83780545      1.70395995      2.57565958
    C      1.48626511      4.09789291      1.06117997
    H      1.27041827      5.14393762      0.99714267
    H      1.09292586      3.59917927      0.20009459
    H      2.54573303      3.95427118      1.10360184
    C      0.83819472      3.51685219      2.33161158
    N      0.35567685      3.08424097      3.27750565
    C      5.12359442      1.13619759     -0.86740271
    H      6.03949594      1.25568872     -1.40753831
    H      4.69392069      0.18427157     -1.10003207
    H      5.31913044      1.19212706      0.18309082
    C      4.14236243      2.25378693     -1.26712495
    N      3.41179062      3.08588299     -1.56473632
    C      3.06303852     -3.24512704     -1.81269355
    H      2.80401991     -4.26425098     -1.61471390
    H      2.98287794     -3.05421474     -2.86246774
    H      2.39731664     -2.59809890     -1.28065214
    C      4.50934745     -2.98435778     -1.35248722
    N      5.58619020     -2.79020321     -1.00984269
    C      1.49897343      0.45283271      0.03004221
    H      2.37146187      0.85570134      0.50053235
    H      1.06587425      1.19206795     -0.61093786
    H      1.76978293     -0.40593394     -0.54795533
    C      0.47681632      0.04503817      1.10730654
    N     -0.28422612     -0.25858340      1.90937880
    C     -0.21719786     -3.56617080      0.52249599
    H      0.78175150     -3.21560715      0.67775544
    H     -0.50029209     -4.20647990      1.33166903
    H     -0.88518006     -2.73149223      0.47765678
    C     -0.28609919     -4.35046853     -0.80103326
    N     -0.33739937     -4.93441384     -1.78646095
    C     -6.37586045     -0.20831015     -0.25538372
    H     -5.88621319     -0.94215860      0.35010137
    H     -7.43516508     -0.34803774     -0.19838381
    H     -6.12565109      0.77019203      0.09792614
    C     -5.91609327     -0.35932562     -1.71737157
    N     -5.57377571     -0.47176351     -2.80588797
    C     -1.72297411      1.07971147      4.91498392
    H     -1.17642955      1.84720793      5.42207208
    H     -2.75080551      1.11967007      5.20971262
    H     -1.64901245      1.22820202      3.85792227
    C     -1.13672929     -0.29613806      5.28234624
    N     -0.70024337     -1.32052058      5.55586419
    C     -2.91124276     -2.37062996      2.94730217
    H     -3.28501133     -3.10588503      2.26568849
    H     -3.14729936     -2.66090118      3.94975865
    H     -1.84963906     -2.29135239      2.83954438
    C     -3.56146729     -1.00873672      2.64061852
    N     -4.04558901      0.00525470      2.41227860
    C      5.79866753     -1.30701301      2.22248902
    H      6.46657310     -1.67395034      1.47138361
    H      5.99762689     -1.80267625      3.14965256
    H      5.94191447     -0.25355219      2.34331822
    C      4.34485895     -1.58170961      1.79519243
    N      3.26243237     -1.78623372      1.47705069
    C     -3.47312396      2.02427694     -4.32229479
    H     -3.00036365      2.57086919     -3.53322268
    H     -4.42741278      1.67214737     -3.99027566
    H     -3.60413068      2.66354522     -5.17027615
    C     -2.59152954      0.82432548     -4.71536954
    N     -1.93514242     -0.06909293     -5.00803156
    C     -3.90455433      5.31321672     -2.08644239
    H     -3.86557451      5.22809014     -3.15233836
    H     -2.91788234      5.47457360     -1.70520568
    H     -4.53031753      6.13833420     -1.81718293
    C     -4.48009602      4.01594739     -1.48857613
    N     -4.90861297      3.05007141     -1.04343752
    C     -2.90554863      3.21472842      1.98916450
    H     -3.04811266      3.41174612      3.03116244
    H     -2.23445150      2.38980733      1.87070383
    H     -3.84663200      2.97637242      1.53922271
    C     -2.31178360      4.46149660      1.30753982
    N     -1.86969855      5.38977218      0.80003927
