120
Energy:   -587.32631225
    C      4.44431731     -2.54454946     -0.95836782
    H      4.69817894     -3.12209628     -0.09413746
    H      5.16112174     -2.72600860     -1.73177785
    H      3.47052668     -2.82534762     -1.30156352
    C      4.44881436     -1.04800613     -0.59513529
    N      4.45216262      0.06623839     -0.32469217
    C      1.14234627     -2.34341963     -3.84011619
    H      2.17520729     -2.62197152     -3.86263619
    H      0.62986279     -2.80760926     -4.65668692
    H      0.70652054     -2.66401421     -2.91698340
    C      1.02065467     -0.81300782     -3.96107413
    N      0.93004974      0.32645334     -4.05113281
    C      1.83430933      5.34707111      1.72250568
    H      1.20753734      5.78535571      2.47081288
    H      2.65546454      6.00155968      1.51696267
    H      2.20642619      4.40761514      2.07442983
    C      1.01897125      5.12640858      0.43482099
    N      0.41191498      4.96211529     -0.52391879
    C     -1.85183278     -0.67301110     -1.95190080
    H     -1.22814417     -1.54156110     -1.99106196
    H     -1.34549428      0.15064055     -2.41028751
    H     -2.76518942     -0.86590371     -2.47484552
    C     -2.16367684     -0.33076927     -0.48315174
    N     -2.39585891     -0.07595467      0.61039870
    C      1.50121870     -5.28182986     -0.44601287
    H      2.50923378     -4.96329593     -0.28065895
    H      1.02332847     -4.61236638     -1.13036561
    H      1.50218528     -6.27020580     -0.85590450
    C      0.73684270     -5.28128504      0.89089739
    N      0.16773003     -5.28087940      1.88628784
    C      1.29663669      1.53928797     -0.92340128
    H      0.30692783      1.35373283     -1.28526568
    H      1.94615903      0.75040587     -1.24071003
    H      1.65012560      2.47091774     -1.31328672
    C      1.27749116      1.60089885      0.61524668
    N      1.26323644      1.64677095      1.76084003
    C     -4.58267430     -3.16225370     -3.45042298
    H     -4.70200886     -2.40517677     -4.19707816
    H     -5.23538646     -3.98216214     -3.66633055
    H     -3.56886514     -3.50443129     -3.44828423
    C     -4.93063211     -2.57934233     -2.06812789
    N     -5.18970251     -2.14533831     -1.03894637
    C      2.30554150     -4.38552462      4.56814199
    H      1.94092510     -3.53593961      5.10680734
    H      3.01924448     -4.90941067      5.16903345
    H      1.48940504     -5.03686284      4.33452071
    C      2.97774539     -3.91684669      3.26426970
    N      3.47823174     -3.56789467      2.29347752
    C      1.17811443      2.66094704      5.13557186
    H      0.66413817      3.55745217      5.41307348
    H      1.26493307      2.02096348      5.98867365
    H      0.62893916      2.15829883      4.36703404
    C      2.58330645      3.01518606      4.61446716
    N      3.62953578      3.27893311      4.22648102
    C      4.91487460      3.02037171      1.11512698
    H      4.15769832      2.47023835      1.63371889
    H      5.25115331      3.82978710      1.72885529
    H      5.73833094      2.37346946      0.89527196
    C      4.33548984      3.57825604     -0.19814313
    N      3.90411156      3.99362629     -1.17593242
    C      4.26689412      1.58387378     -3.59064726
    H      4.82103249      1.83659085     -2.71089449
    H      3.23919429      1.84804431     -3.45300248
    H      4.66362225      2.11893154     -4.42803551
    C      4.37747690      0.06985615     -3.84972652
    N      4.45981079     -1.05739879     -4.04262282
    C      0.12494198     -1.78954515      2.13950741
    H     -0.92483930     -1.99344222      2.10365456
    H      0.28638150     -0.82560786      2.57500858
    H      0.61301222     -2.53490931      2.73206020
    C      0.70103478     -1.81066775      0.71147698
    N      1.12996205     -1.82639448     -0.35175659
    C     -3.06451102     -3.82327210      1.19149526
    H     -3.11783937     -2.79272630      1.47439388
    H     -2.53943246     -4.37310673      1.94440527
    H     -4.05427788     -4.21635274      1.08782146
    C     -2.31895292     -3.94939478     -0.15008448
    N     -1.76385103     -4.04329885     -1.14895158
    C     -5.07846257      1.72701985     -1.36193155
    H     -4.76638512      1.07321617     -0.57449991
    H     -6.08373751      2.04671920     -1.18272856
    H     -4.43328306      2.58002127     -1.39404182
    C     -5.00935243      0.98019460     -2.70695045
    N     -4.95789680      0.42414926     -3.70837816
    C     -2.04759082      0.81805059      4.01340127
    H     -2.84197819      1.53168993      3.94581605
    H     -1.38728023      0.93939847      3.18023639
    H     -1.50595592      0.97236128      4.92319187
    C     -2.63417087     -0.60580142      4.00038967
    N     -3.07090638     -1.66592396      3.99070195
    C     -5.70814161     -0.81508184      2.01854072
    H     -5.89524959     -1.26190917      2.97260368
    H     -4.86050705     -1.28471154      1.56481979
    H     -6.56513566     -0.94267514      1.39070297
    C     -5.42537482      0.68757285      2.20203958
    N     -5.21484209      1.80636757      2.33866282
    C      3.97492751     -0.14918833      3.13440649
    H      4.57563384      0.63585633      3.54398795
    H      3.55580277      0.17109114      2.20346363
    H      4.58182229     -1.01552875      2.97306187
    C      2.84010891     -0.49314682      4.11699455
    N      1.99518489     -0.74923956      4.84857603
    C     -2.21214038      0.84427734     -5.75208588
    H     -1.23120299      1.25225440     -5.87943087
    H     -2.69602222      1.32890603     -4.92995907
    H     -2.78208873      1.00081983     -6.64402333
    C     -2.10722902     -0.66571452     -5.46832863
    N     -2.02911775     -1.78997210     -5.25705847
    C      0.25214179      3.82107979     -3.77707115
    H     -0.03886055      4.68316734     -4.34011898
    H      0.69785507      3.10140808     -4.43152619
    H      0.95939435      4.10713162     -3.02682635
    C     -0.98844349      3.20440552     -3.10456761
    N     -1.91211562      2.74526350     -2.60385816
    C     -2.24243818      3.32493331      0.80593833
    H     -3.15166880      2.79777992      1.00670975
    H     -1.56520023      2.68188821      0.28369236
    H     -2.45375724      4.18430631      0.20450555
    C     -1.60439953      3.77229046      2.13423734
    N     -1.12935076      4.10536819      3.12321633
