120
Energy:   -587.30546541
    C      5.55558322     -1.92057140     -0.34712632
    H      4.75488013     -1.40901682      0.14489670
    H      6.23787992     -1.20507673     -0.75631782
    H      6.06913712     -2.54062473      0.35763985
    C      4.98686518     -2.79419333     -1.48068025
    N      4.56342875     -3.44464456     -2.32466268
    C      1.55806175     -2.92563654     -3.66527697
    H      2.00307825     -1.95285897     -3.64152188
    H      2.18565496     -3.59151096     -4.21992741
    H      1.44564945     -3.29093066     -2.66586576
    C      0.17609278     -2.84159703     -4.33959080
    N     -0.85284593     -2.77902580     -4.84164810
    C      0.91602337      5.81131467      1.35873898
    H      1.60635230      6.58080866      1.08264996
    H      1.45267101      4.91068288      1.57268006
    H      0.37054351      6.11633704      2.22725045
    C     -0.06482419      5.56105043      0.19817624
    N     -0.79510978      5.37471733     -0.66591547
    C     -1.70176207     -0.88248924     -1.94764512
    H     -1.98067732     -1.90569291     -2.08963358
    H     -0.67672403     -0.75047608     -2.22471666
    H     -2.31945174     -0.25654674     -2.55719785
    C     -1.88661006     -0.50072974     -0.46720907
    N     -2.02423779     -0.21649243      0.63504286
    C      2.49332032     -5.07183324      0.05483507
    H      1.65234964     -5.57129841      0.48865883
    H      3.17349461     -5.79679955     -0.34100059
    H      2.15914905     -4.42901361     -0.73257307
    C      3.20570498     -4.23474548      1.13344166
    N      3.73610775     -3.61149558      1.93651328
    C      0.30066006      2.15174073     -1.05801040
    H     -0.76272738      2.19656421     -0.94801866
    H      0.56653451      1.26604128     -1.59629133
    H      0.64009741      3.01179405     -1.59651729
    C      0.95994775      2.12413962      0.33345571
    N      1.45081739      2.10358935      1.36946548
    C     -3.68817453     -4.08980719     -3.46443671
    H     -2.66353003     -4.07328186     -3.15665310
    H     -3.80269320     -4.76458917     -4.28690486
    H     -4.30033334     -4.41423602     -2.64901865
    C     -4.11702505     -2.67547220     -3.89726895
    N     -4.43632375     -1.62243550     -4.21953223
    C      1.47492478     -3.46574250      4.85123503
    H      2.47645818     -3.20345971      4.58097818
    H      1.48612958     -4.02150177      5.76551354
    H      0.89603350     -2.57542982      4.98210636
    C      0.85050841     -4.32474199      3.73596643
    N      0.38560205     -4.96430616      2.90559825
    C      1.15459223      3.36101823      4.65533828
    H      0.56586583      4.21548809      4.91645639
    H      1.27351396      2.73389275      5.51409921
    H      0.66305488      2.81301560      3.87881833
    C      2.53820860      3.82252726      4.16115695
    N      3.56837388      4.16614170      3.79321650
    C      4.57800543      4.15644653      0.63189436
    H      4.25292626      3.31993258      1.21453329
    H      4.60222075      5.03165946      1.24696755
    H      5.55759614      3.96384679      0.24691842
    C      3.60114437      4.37794895     -0.53784029
    N      2.87382691      4.54286758     -1.40876090
    C      3.24721399      1.21180106     -3.12241286
    H      2.52252216      0.42529673     -3.08875464
    H      3.89810360      1.06152377     -3.95827083
    H      2.74793764      2.15272824     -3.22379459
    C      4.07202020      1.20583454     -1.82192867
    N      4.68612592      1.20139219     -0.85365909
    C      0.90715147     -1.52152046      1.56845333
    H      0.10362414     -2.22626652      1.51768905
    H      0.54280682     -0.59237738      1.95425793
    H      1.67297588     -1.89959683      2.21302320
    C      1.48580045     -1.30033670      0.15854443
    N      1.91663092     -1.13565534     -0.89119683
    C     -2.34986728     -4.32259221      1.12584639
    H     -2.12182150     -3.62558919      1.90500112
    H     -2.24696983     -5.32032497      1.49845952
    H     -3.35473640     -4.16834249      0.79216364
    C     -1.37991608     -4.11177010     -0.05158671
    N     -0.65774332     -3.95480346     -0.92823917
    C     -5.46208290      0.18424919     -1.29156151
    H     -5.17303457      0.35059799     -2.30826172
    H     -4.92579165      0.85556555     -0.65388986
    H     -6.51302468      0.35590333     -1.18689385
    C     -5.13738380     -1.26841869     -0.89668619
    N     -4.89563056     -2.34999596     -0.60268357
    C     -1.41499093      0.70759473      3.93129250
    H     -0.92021619      1.05807940      4.81291522
    H     -2.39009032      1.14414565      3.87210165
    H     -0.84653314      0.98616283      3.06864851
    C     -1.54183699     -0.82608076      3.98916797
    N     -1.63627964     -1.96797188      4.03225890
    C     -4.74135714     -1.65761758      2.70437152
    H     -4.61738876     -1.84013994      3.75137563
    H     -3.86363469     -1.97432870      2.18073381
    H     -5.58794446     -2.20433322      2.34480091
    C     -4.96459068     -0.15223006      2.46862759
    N     -5.13079820      0.96859938      2.29310552
    C      4.11500748      0.50342341      2.73665151
    H      4.82518370     -0.29437619      2.80041449
    H      4.59198070      1.42672956      2.99140903
    H      3.73358174      0.56248803      1.73869116
    C      2.95536558      0.23777844      3.71453874
    N      2.09195948      0.03999369      4.44262023
    C     -2.15596034      0.35004510     -5.76349900
    H     -2.16133735      0.87250686     -6.69725752
    H     -3.01679037      0.63020568     -5.19307741
    H     -2.17579977     -0.70432622     -5.94462494
    C     -0.88071349      0.71237608     -4.97987809
    N      0.06876575      0.98214796     -4.39643669
    C     -1.53747138      4.26820489     -3.75674767
    H     -1.72076903      5.20573489     -3.27473144
    H     -1.78763852      4.34562430     -4.79420694
    H     -0.50330289      4.01223907     -3.65736897
    C     -2.40203721      3.17583393     -3.10035479
    N     -3.04574577      2.36251409     -2.61164046
    C     -3.30961099      3.26345353      0.70699891
    H     -4.31781300      3.35862227      1.05250117
    H     -3.13893382      2.26007372      0.37685147
    H     -3.14600123      3.93923469     -0.10629732
    C     -2.33967533      3.59797948      1.85544012
    N     -1.61751415      3.84704925      2.71050680
