120
Energy:   -587.23861589
    C      4.24923000     -5.00915053     -0.81389881
    H      3.89254852     -4.21917357     -1.44128617
    H      4.77905637     -5.72450895     -1.40756998
    H      4.90549100     -4.60603566     -0.07112093
    C      3.05550341     -5.69673077     -0.12553100
    N      2.16671970     -6.20866550      0.38699012
    C      0.17071389     -1.06897676     -4.79811526
    H      0.46112277     -2.08564755     -4.96225960
    H      0.98291765     -0.42052043     -5.05253331
    H     -0.67609403     -0.83676527     -5.40958338
    C     -0.19745433     -0.87323377     -3.31563867
    N     -0.47157230     -0.72749422     -2.21186746
    C     -0.10609906      5.73760330     -0.98463736
    H     -1.01093935      5.18352751     -0.84620230
    H     -0.15451888      6.27452511     -1.90890441
    H      0.01620245      6.42849235     -0.17679223
    C      1.08986227      4.76792670     -1.01631987
    N      1.98030985      4.04595839     -1.03990894
    C     -0.14785319      2.70292412     -3.82135052
    H      0.77059996      3.20316251     -4.04741586
    H     -0.38013611      2.01236506     -4.60497794
    H     -0.04731443      2.17306044     -2.89721010
    C     -1.28012806      3.73945305     -3.69821891
    N     -2.12315816      4.51119596     -3.60654183
    C      1.47841646     -4.22127425      3.19895536
    H      0.86889486     -3.36922307      2.98125743
    H      1.38087673     -4.47450523      4.23397186
    H      1.16279478     -5.04847400      2.59810378
    C      2.95031813     -3.89257783      2.88740416
    N      4.04621582     -3.64784840      2.65544013
    C     -2.78405920      0.20249504     -0.17227846
    H     -3.55913510      0.32984322      0.55431632
    H     -2.05259701     -0.48246834      0.20280463
    H     -3.20372797     -0.18415560     -1.07741851
    C     -2.11727757      1.56153437     -0.45514653
    N     -1.62082833      2.57340093     -0.66575466
    C     -3.17822122     -2.90203790     -2.91908075
    H     -3.98019158     -3.42913107     -3.39227893
    H     -2.24307854     -3.29244939     -3.26257183
    H     -3.24182049     -1.86217584     -3.16309125
    C     -3.27835460     -3.07814141     -1.39246330
    N     -3.35290845     -3.20925848     -0.25582721
    C      3.09259763     -0.54824660      4.18808450
    H      2.28530751     -1.07494177      3.72356859
    H      2.71699182      0.03116554      5.00545892
    H      3.81464758     -1.24988832      4.55035769
    C      3.75587255      0.38572163      3.15882761
    N      4.24971087      1.08110342      2.39249907
    C      2.38622848      4.17457442      2.40608125
    H      3.07068803      4.71009915      3.03028359
    H      1.68967203      4.86005277      1.97038913
    H      2.92743236      3.67461398      1.63017080
    C      1.62470861      3.13681014      3.25149997
    N      1.05772246      2.36414747      3.88095263
    C      4.51549746      1.73089828     -1.55502944
    H      4.24644374      1.33732435     -0.59710991
    H      4.54636513      2.79931822     -1.50578401
    H      5.47863481      1.35881890     -1.83578287
    C      3.47210768      1.29513989     -2.60052090
    N      2.69525657      0.97069796     -3.37893681
    C      3.52514737     -2.25188016     -3.80503449
    H      2.75900532     -1.97524875     -3.11120339
    H      3.50238818     -3.31063355     -3.95807818
    H      3.35930577     -1.75313667     -4.73704875
    C      4.89926582     -1.84402626     -3.24195929
    N      5.92235947     -1.54036049     -2.82272421
    C      1.26024471      1.00145806      0.35525668
    H      0.77426268      1.94516170      0.48996036
    H      1.13985105      0.67970311     -0.65809331
    H      2.30235520      1.10219857      0.57606469
    C      0.63311123     -0.03867600      1.30205377
    N      0.16618185     -0.81310309      2.00698724
    C      0.20274585     -3.46457158     -0.22890248
    H     -0.23663831     -4.32262477      0.23541042
    H     -0.49961679     -2.65737910     -0.22379184
    H      1.08051300     -3.17701015      0.31122004
    C      0.58267986     -3.80524429     -1.68189671
    N      0.86555801     -4.05889061     -2.76371697
    C     -6.25282032     -0.86919140      0.86012254
    H     -5.61181457     -1.60312117      1.30211677
    H     -7.27277333     -1.11002185      1.07598275
    H     -6.02127510      0.09505469      1.26201231
    C     -6.04067118     -0.85405888     -0.66511966
    N     -5.88271649     -0.84279203     -1.80073180
    C     -0.87863463      0.09907778      5.36451595
    H     -0.85546373      0.39735611      4.33719257
    H     -0.31380615      0.79374904      5.95043379
    H     -1.89169334      0.08323582      5.70855109
    C     -0.26686587     -1.30722927      5.50465680
    N      0.18862379     -2.35428879      5.60899802
    C     -2.30885498     -3.07945826      2.90235856
    H     -1.92323334     -3.38159492      3.85362591
    H     -1.50924141     -3.02859880      2.19318260
    H     -3.03573771     -3.79080387      2.56990101
    C     -2.96854111     -1.69399855      3.03241851
    N     -3.45970742     -0.66246082      3.12925406
    C      5.78546926     -1.41294382      0.64523700
    H      5.88843347     -1.92572388      1.57870106
    H      6.02214036     -0.37803045      0.77880416
    H      6.45297990     -1.84168883     -0.07275072
    C      4.33592939     -1.54735341      0.14287436
    N      3.25668106     -1.64742747     -0.23115745
    C     -4.74700148      2.03512339     -3.16802263
    H     -4.48614585      3.07031640     -3.24034108
    H     -4.77702665      1.74596773     -2.13827189
    H     -5.70827191      1.87775590     -3.61084733
    C     -3.69571206      1.18787736     -3.90867417
    N     -2.91297930      0.55706417     -4.46012292
    C     -4.07068050      5.05061625     -0.39930917
    H     -4.84593032      5.72843898     -0.68990211
    H     -3.44068425      4.84770141     -1.24004063
    H     -3.48909578      5.48886281      0.38465401
    C     -4.69867230      3.73635414      0.10063221
    N     -5.16624074      2.75782625      0.47286129
    C     -2.28024024      2.56836107      2.90197169
    H     -1.66486209      1.76100503      2.56376148
    H     -3.26795113      2.45377014      2.50675629
    H     -2.32095907      2.56211869      3.97117799
    C     -1.68575370      3.90426225      2.41869765
    N     -1.24313145      4.89890140      2.05887816
