120
Energy:   -587.23663124
    C      5.48585738     -4.40751172      1.27142658
    H      6.15379129     -3.58254238      1.13655601
    H      5.99658421     -5.32041973      1.04635732
    H      5.14645855     -4.42946520      2.28593413
    C      4.27794548     -4.24934891      0.32933669
    N      3.37860017     -4.13158950     -0.37209206
    C      0.17442746     -3.11914285     -5.17530750
    H     -0.60169048     -2.51105720     -5.59096718
    H     -0.21913597     -3.69385983     -4.36308382
    H      0.55286837     -3.77844198     -5.92830567
    C      1.31322428     -2.21826931     -4.66230784
    N      2.16111028     -1.54752800     -4.28035628
    C      1.46794349      4.99985861     -0.53700033
    H      1.97459875      4.46111770     -1.31027833
    H      1.45518200      6.04226817     -0.77807820
    H      0.46346636      4.64117795     -0.45171864
    C      2.20280317      4.79118390      0.80017435
    N      2.74993959      4.63581609      1.79576168
    C      1.38732559      1.69135765     -3.55195671
    H      1.60760386      2.62295129     -4.02998491
    H      0.90165898      1.03950873     -4.24774405
    H      2.29684678      1.23953030     -3.21502595
    C      0.46025413      1.93902846     -2.34746608
    N     -0.22999271      2.12343064     -1.45066805
    C      0.68090804     -4.03090364      2.08487180
    H      0.97456679     -4.39934314      1.12418608
    H      0.24918935     -3.05782887      1.97696657
    H     -0.03885321     -4.69455098      2.51662989
    C      1.91553151     -3.94597026      3.00143670
    N      2.83476480     -3.88273349      3.68386093
    C     -2.63680084     -0.14208409     -1.52588281
    H     -3.42271850     -0.85222654     -1.37445190
    H     -3.03048498      0.84919764     -1.44060438
    H     -1.87648839     -0.28864783     -0.78740930
    C     -2.03333656     -0.33577263     -2.92941963
    N     -1.58402997     -0.47998254     -3.97441659
    C     -3.81175679     -3.23033819     -4.05722336
    H     -2.77431234     -3.40125051     -3.85873366
    H     -3.92528509     -2.31352939     -4.59710487
    H     -4.20111189     -4.03837378     -4.64064446
    C     -4.58112648     -3.14090416     -2.72618172
    N     -5.15395719     -3.07431646     -1.73516072
    C      1.11054327     -1.00097120      5.00261675
    H      0.75819001     -1.30782911      4.04002360
    H      0.28410232     -0.66949530      5.59592795
    H      1.58904656     -1.82635723      5.48704590
    C      2.11844050      0.15153824      4.83689059
    N      2.86886581      1.00963391      4.71349992
    C      0.76782587      4.02235335      4.43855228
    H      0.50307185      4.65995245      3.62107269
    H      1.77219987      3.67640533      4.31028724
    H      0.69310079      4.56854906      5.35560490
    C     -0.18912748      2.81647815      4.47984742
    N     -0.90162274      1.91864924      4.51059353
    C      5.03594377      2.13583765      1.39819758
    H      5.80415884      1.39114863      1.38463147
    H      4.33671940      1.91281387      2.17681480
    H      5.47319142      3.09613814      1.57578293
    C      4.30733766      2.14650587      0.04150332
    N      3.76485730      2.15444885     -0.96861723
    C      4.59168872     -1.06064181     -1.98124253
    H      4.33890630     -2.06678322     -2.24331255
    H      4.99951595     -0.56136099     -2.83523006
    H      3.71282724     -0.54598498     -1.65317253
    C      5.63344550     -1.07186261     -0.84712750
    N      6.40908077     -1.08021701     -0.00272731
    C      1.05177334      1.45352318      1.45795212
    H      1.71462168      1.44252925      2.29783985
    H      0.53329435      2.38893361      1.42499848
    H      1.61516751      1.32608599      0.55726024
    C      0.03312116      0.30646671      1.59289349
    N     -0.72531170     -0.54756898      1.69336348
    C      1.01237378     -1.84555042     -1.05527529
    H      1.20387754     -1.88568210     -0.00331714
    H      0.78616514     -0.83880924     -1.33847299
    H      1.87768943     -2.18015183     -1.58835110
    C     -0.18308692     -2.75517126     -1.39448559
    N     -1.07316176     -3.43242532     -1.64704307
    C     -6.38280737      0.34014117     -1.27587272
    H     -7.36819848      0.75679526     -1.29330619
    H     -5.72063041      1.01140964     -0.77008680
    H     -6.40123594     -0.59786491     -0.76137872
    C     -5.89109640      0.12437312     -2.71922454
    N     -5.52499522     -0.03627600     -3.79386557
    C     -2.96820745     -0.71019158      4.49731832
    H     -2.70087327     -0.22225282      5.41129228
    H     -4.02361880     -0.88561978      4.48212271
    H     -2.69793877     -0.08900295      3.66908006
    C     -2.22294895     -2.05402283      4.39579316
    N     -1.66807013     -3.05456627      4.32020306
    C     -3.12043084     -3.19594956      1.11853359
    H     -3.35592681     -3.85294371      1.92958261
    H     -2.07244463     -2.98019197      1.12705819
    H     -3.38051219     -3.66489334      0.19260243
    C     -3.91548808     -1.88596795      1.27160921
    N     -4.50744434     -0.91062709      1.38558096
    C      5.18977075     -1.27548948      3.33126193
    H      5.02727709     -2.14834708      3.92843493
    H      5.21750925     -0.41175896      3.96221300
    H      6.12036236     -1.36731356      2.81119782
    C      4.04435912     -1.13019501      2.31218307
    N      3.19154811     -1.02201667      1.55343253
    C     -3.46065039      2.19307982     -5.25191000
    H     -4.09848228      2.25432749     -4.39498562
    H     -3.22669858      1.16790471     -5.44985351
    H     -3.95992596      2.61496955     -6.09904166
    C     -2.16077909      2.97321033     -4.98111301
    N     -1.19296583      3.55405295     -4.77949234
    C     -2.22432060      5.05424341     -1.88278730
    H     -2.49723304      5.78100500     -2.61915445
    H     -1.30591997      4.58507221     -2.16794997
    H     -2.09970468      5.53579651     -0.93543489
    C     -3.33269682      3.99042745     -1.77602708
    N     -4.15793330      3.19836811     -1.69653924
    C     -3.15721067      2.20985550      1.58640240
    H     -3.37361701      1.97561370      2.60777367
    H     -2.72067124      1.35716658      1.10969071
    H     -4.06254528      2.47594684      1.08195843
    C     -2.17103091      3.39125269      1.52852190
    N     -1.43677525      4.27085661      1.48542723
