120
Energy:   -587.17170599
    C      4.85009221     -2.56088474      1.00665318
    H      5.61236598     -2.85302335      1.69838573
    H      5.10986980     -2.89978239      0.02555019
    H      3.91734798     -2.99610880      1.29900109
    C      4.72155648     -1.02626420      1.00236784
    N      4.62585579      0.11633055      0.99917721
    C      1.58074218     -1.48409132     -4.71401386
    H      1.51197132     -1.14573018     -5.72677370
    H      2.45814075     -2.08536556     -4.59765178
    H      1.63742312     -0.63991105     -4.05899781
    C      0.33534236     -2.32068304     -4.36660402
    N     -0.59191441     -2.94356360     -4.10794161
    C      1.25679992      6.15820718      1.40723429
    H      0.56092276      6.28726406      2.20973007
    H      1.94303565      6.97907452      1.39472712
    H      1.79609313      5.24456792      1.54624951
    C      0.49449595      6.10598385      0.07016085
    N     -0.07307401      6.06710121     -0.92535110
    C     -1.80134292     -2.63551486     -0.91206027
    H     -1.11647674     -3.35456980     -1.31058063
    H     -1.51201293     -1.65468055     -1.22694329
    H     -2.78806613     -2.84762375     -1.26742799
    C     -1.78331332     -2.70700331      0.62617389
    N     -1.76988947     -2.76022971      1.77145914
    C      2.01396604     -4.31883411     -1.89832908
    H      1.17124345     -4.67939118     -2.45034122
    H      2.86198655     -4.94090305     -2.09528227
    H      2.23177067     -3.31430364     -2.19561475
    C      1.69286460     -4.35036023     -0.39250706
    N      1.45378998     -4.37383286      0.72864589
    C      0.37487375      2.69543708     -0.88908873
    H      0.49722560      1.77256928     -1.41657829
    H      0.96480925      3.45512271     -1.35786687
    H     -0.65575541      2.98246991     -0.90683051
    C      0.83304882      2.51718439      0.57032951
    N      1.17418098      2.38446716      1.65693272
    C     -3.57746328     -4.76816272     -3.46477389
    H     -3.69350486     -3.71890033     -3.63936758
    H     -4.13617002     -5.31520539     -4.19517802
    H     -2.54249675     -5.02962479     -3.53812893
    C     -4.09590915     -5.11467440     -2.05667462
    N     -4.48191566     -5.37266809     -1.00828072
    C      0.61748591     -3.46134412      4.18982697
    H     -0.01540531     -2.60228046      4.26956728
    H      0.49405898     -4.07694389      5.05625747
    H      0.35348684     -4.01893324      3.31558561
    C      2.08598259     -3.00923781      4.08630216
    N      3.17934511     -2.67262410      4.00922322
    C      0.24970867      3.77545521      4.76276682
    H     -0.09492742      3.05966935      4.04598461
    H     -0.38041248      4.63979136      4.73502762
    H      0.21958094      3.34335841      5.74117562
    C      1.69599440      4.18355097      4.42614324
    N      2.77281987      4.48739681      4.17551169
    C      4.60965796      3.52945639      1.39621199
    H      3.87239650      3.06321617      2.01586172
    H      4.97651381      4.41061537      1.87981794
    H      5.41927858      2.84943363      1.23194820
    C      3.97751553      3.91100862      0.04476320
    N      3.50685676      4.19509161     -0.96145186
    C      3.92558496      0.99990361     -2.36041512
    H      2.92370317      1.17691974     -2.02905679
    H      4.05472860      1.40945972     -3.34045839
    H      4.61220665      1.46669099     -1.68546381
    C      4.19345400     -0.51614950     -2.39821915
    N      4.39289467     -1.64491995     -2.42636596
    C      1.25629729     -0.93930556      1.34493458
    H      0.29172157     -0.74000302      1.76299243
    H      1.95351229     -0.20494814      1.69063608
    H      1.58269280     -1.91193661      1.64883241
    C      1.17133118     -0.88321620     -0.19169640
    N      1.10807005     -0.84145512     -1.33578800
    C     -1.69070345     -6.26812617      1.12404497
    H     -1.03753145     -5.64778182      1.70148709
    H     -1.65164128     -7.27064845      1.49596205
    H     -2.69209888     -5.89867669      1.19896750
    C     -1.24574158     -6.24980669     -0.35015763
    N     -0.91444723     -6.23616700     -1.44776848
    C     -5.32575134      1.20670073     -1.39628295
    H     -6.38153847      1.27704196     -1.23733066
    H     -5.02993330      1.91208245     -2.14449911
    H     -4.81242016      1.42014789     -0.48204529
    C     -4.97077648     -0.21696731     -1.86400313
    N     -4.70648156     -1.27695287     -2.21224207
    C     -2.14079545      0.77720243      2.72210808
    H     -1.96231327     -0.21121284      3.09099769
    H     -3.08883256      1.12438124      3.07649712
    H     -1.36885229      1.43206927      3.06873795
    C     -2.14423270      0.75758483      1.18223688
    N     -2.14679190      0.74297863      0.03573277
    C     -5.32927237     -2.81399708      1.10957655
    H     -4.57807258     -3.32806375      1.67201278
    H     -5.13200658     -2.92726959      0.06403619
    H     -6.29008761     -3.22581199      1.33792200
    C     -5.31149805     -1.31838933      1.47623925
    N     -5.29826426     -0.20484138      1.74923630
    C      3.24222181      0.86853863      4.25013694
    H      3.86576499      0.01642506      4.42333204
    H      3.52946565      1.66064777      4.90964674
    H      3.35271105      1.19111482      3.23592009
    C      1.77234482      0.49063089      4.51137891
    N      0.67795458      0.20926141      4.70588543
    C     -1.63734539      0.39573911     -3.50029891
    H     -1.04264111      0.35515075     -4.38888182
    H     -2.46648984     -0.27390415     -3.59514869
    H     -1.04163951      0.10888748     -2.65902028
    C     -2.15729889      1.83079621     -3.29570298
    N     -2.54442791      2.89926144     -3.14337200
    C      0.74155437      4.67402673     -4.01374698
    H     -0.24846591      4.77625945     -3.62092576
    H      0.81246630      5.19928416     -4.94324966
    H      1.44501943      5.08253828     -3.31865395
    C      1.05192004      3.18295612     -4.24174163
    N      1.28300140      2.07278627     -4.41149401
    C     -3.18847323      4.36281277     -0.15739686
    H     -4.15216910      4.78995457      0.02628857
    H     -3.30438586      3.35831034     -0.50730860
    H     -2.67703646      4.94165222     -0.89785376
    C     -2.37072922      4.36068440      1.14755149
    N     -1.76188163      4.35909973      2.11914485
