120
Energy:   -587.12748134
    C      5.51627476     -4.71485711      1.89057397
    H      6.11231758     -4.01205512      1.34678863
    H      6.03103405     -5.65123524      1.94641276
    H      5.34123144     -4.34457401      2.87908262
    C      4.16947921     -4.91161328      1.17013747
    N      3.16672870     -5.05810719      0.63373975
    C      1.18476884     -1.43321585     -5.20251557
    H      1.86483360     -1.68408224     -5.98958493
    H      1.67497049     -0.79471583     -4.49759065
    H      0.33602135     -0.92675292     -5.61242054
    C      0.72202113     -2.72004885     -4.49433100
    N      0.37748442     -3.67815451     -3.96705540
    C      0.83084972      6.00284469     -0.63620666
    H     -0.05870849      5.53993603     -1.00943844
    H      1.23306809      6.65589241     -1.38229522
    H      0.59771385      6.56644760      0.24293981
    C      1.86779800      4.91801774     -0.29053520
    N      2.63985313      4.11031476     -0.03316709
    C      0.82077206      2.25166670     -3.49009040
    H      1.81884244      2.60861427     -3.34399411
    H      0.39997691      2.71442994     -4.35823827
    H      0.83766327      1.19027157     -3.62445616
    C     -0.03438499      2.59951206     -2.25748745
    N     -0.67108827      2.85849874     -1.33975852
    C      0.92550021     -3.87550290      3.20209618
    H      1.04926682     -4.62662135      2.45016328
    H      0.57637836     -2.97126886      2.74891430
    H      0.21236540     -4.20992957      3.92631758
    C      2.27622673     -3.61455003      3.89422439
    N      3.28190402     -3.42025876      4.40954530
    C     -2.39047575      0.00489933     -1.25779098
    H     -2.93702368      0.91713139     -1.13939245
    H     -1.50553461      0.03880240     -0.65726717
    H     -2.99980975     -0.81861874     -0.94887489
    C     -2.00052286     -0.17157790     -2.73711263
    N     -1.71018521     -0.30297321     -3.83853484
    C     -3.11309578     -3.54795906     -3.97198592
    H     -2.35785731     -2.92870013     -4.40905959
    H     -4.07921302     -3.18815398     -4.25844166
    H     -2.99136474     -4.55436073     -4.31438382
    C     -2.98478950     -3.50861319     -2.43784466
    N     -2.88925965     -3.47931840     -1.29560676
    C      1.52773766     -0.38611409      5.15635496
    H      1.02120468     -0.91237710      4.37445231
    H      0.81367715      0.14889712      5.74693068
    H      2.05100546     -1.08449916      5.77550616
    C      2.53136717      0.60644922      4.54060675
    N      3.27861497      1.34545772      4.08215421
    C      1.51154600      4.37145956      3.50071592
    H      1.04296374      5.08652640      2.85727962
    H      2.28330899      3.86045912      2.96391099
    H      1.93675041      4.87492909      4.34369798
    C      0.46321403      3.35313495      3.98611788
    N     -0.31731677      2.59494598      4.34752170
    C      4.22179933      0.94819608     -1.07221122
    H      3.45470904      0.44522997     -0.52130490
    H      4.14219108      2.00322202     -0.91258074
    H      5.18055465      0.60855405     -0.74005071
    C      4.06052103      0.64247271     -2.57291856
    N      3.94044200      0.41484776     -3.69026339
    C      3.76969953     -3.15486719     -2.41968005
    H      4.21425874     -3.74762867     -3.19162636
    H      3.26805135     -2.31722476     -2.85740525
    H      3.06488956     -3.74823111     -1.87556494
    C      4.86626642     -2.65331131     -1.46177464
    N      5.68271031     -2.27988016     -0.74857053
    C      1.08877992      1.41481119      1.12111052
    H      0.60082401      2.35926774      1.24277002
    H      1.29248593      1.24960482      0.08375339
    H      2.00760799      1.41481669      1.66942982
    C      0.17546009      0.29326351      1.64986161
    N     -0.50454803     -0.54177971      2.04354083
    C      0.37382525     -2.99728844     -0.44490894
    H      1.15239554     -3.33376474      0.20740401
    H      0.17113514     -3.75102139     -1.17682590
    H     -0.51138339     -2.80638798      0.12505751
    C      0.81902781     -1.70295374     -1.15066554
    N      1.15050135     -0.73926273     -1.67613340
    C     -6.25230740      0.09755556     -0.72484397
    H     -7.11427007      0.70178816     -0.91673846
    H     -5.47549459      0.70568343     -0.31054764
    H     -6.50679294     -0.67700865     -0.03188907
    C     -5.76348543     -0.53254492     -2.04227574
    N     -5.39953525     -1.00168336     -3.02316358
    C     -2.50660466      0.07445700      4.89587365
    H     -2.17751870      0.70121008      5.69823465
    H     -3.57489062      0.01463440      4.90511859
    H     -2.18054299      0.48720484      3.96408928
    C     -1.91199327     -1.33554994      5.06884104
    N     -1.46927806     -2.38536420      5.19762312
    C     -2.98948196     -3.05035910      2.09098498
    H     -3.22693409     -3.43626396      3.06031161
    H     -1.92775812     -2.96057554      1.99310504
    H     -3.36175121     -3.71645474      1.34089746
    C     -3.64002878     -1.66548353      1.91631821
    N     -4.12439046     -0.63438072      1.78627086
    C      5.31956537     -0.99171154      2.54010138
    H      5.40498026     -1.55456839      3.44607966
    H      5.41104421      0.05175732      2.75851258
    H      6.09576263     -1.28399730      1.86409403
    C      3.94782439     -1.26276104      1.89476515
    N      2.92650088     -1.46456971      1.41428299
    C     -4.25581546      1.72342824     -4.89607232
    H     -4.74984955      1.64347154     -3.95032530
    H     -3.86257054      0.76818391     -5.17493751
    H     -4.95466692      2.05152303     -5.63692288
    C     -3.10492868      2.74113444     -4.78961247
    N     -2.24804116      3.49886297     -4.71034827
    C     -3.06989811      5.25004529     -1.82008843
    H     -3.63364415      5.98372029     -2.35750034
    H     -2.18549982      5.00608533     -2.37074466
    H     -2.79712315      5.64112157     -0.86219895
    C     -3.92399123      3.98236194     -1.63272811
    N     -4.55990238      3.03851407     -1.49322985
    C     -2.77885348      2.55568163      1.63389467
    H     -2.87270040      2.25299615      2.65588999
    H     -2.23619447      1.81112256      1.08978799
    H     -3.75243537      2.67176161      1.20545232
    C     -2.02357593      3.89586492      1.56272883
    N     -1.46123746      4.89369229      1.50974263
