120
Energy:   -587.11733930
    C      5.43079185     -5.43887477      0.93229972
    H      5.97310676     -4.83862169      0.23194912
    H      5.81669185     -6.43679600      0.92074574
    H      5.53796028     -5.02636762      1.91375367
    C      3.94061118     -5.46023188      0.54434941
    N      2.83110393     -5.47613321      0.25550278
    C      0.57509531     -1.49304496     -4.85640876
    H      1.57022649     -1.17820141     -5.09196692
    H     -0.11741005     -1.00579683     -5.51056829
    H      0.49758216     -2.55299879     -4.98045985
    C      0.25110076     -1.12191555     -3.39733697
    N      0.00987209     -0.84559284     -2.31099170
    C     -0.35585394      5.66015276     -0.56342165
    H     -0.48346822      6.68923761     -0.82723817
    H      0.67791408      5.39650003     -0.64533639
    H     -0.68440762      5.50663157      0.44324752
    C     -1.18716770      4.77945689     -1.51467987
    N     -1.80611859      4.12373878     -2.22293486
    C      0.76582365      2.39745907     -3.64246515
    H      1.33996355      1.70885689     -4.22649477
    H      0.39533507      3.17804946     -4.27358792
    H     -0.05672963      1.88305978     -3.19113537
    C      1.65658140      3.00541635     -2.54312963
    N      2.31979103      3.45806818     -1.72462437
    C      1.37192463     -3.97051368      3.18027906
    H      1.24387209     -4.83084070      2.55710962
    H      1.02144030     -3.10107707      2.66439166
    H      0.81344859     -4.09837589      4.08396864
    C      2.86445068     -3.79959838      3.51903257
    N      3.97570417     -3.67234416      3.77124996
    C     -2.42109548      0.79880528     -0.84998863
    H     -2.20641185      0.18933117      0.00286096
    H     -1.58174842      1.42880904     -1.05853329
    H     -2.61611206      0.17292820     -1.69565139
    C     -3.65743585      1.67005461     -0.56018336
    N     -4.57794745      2.31873933     -0.34441016
    C     -3.10274047     -2.59469846     -3.40952236
    H     -2.59896728     -1.68619115     -3.66589557
    H     -4.07841455     -2.59770385     -3.84878326
    H     -2.54316986     -3.42900700     -3.77790950
    C     -3.22891955     -2.69716389     -1.87812441
    N     -3.32286561     -2.77345406     -0.73792903
    C      2.73105248     -0.28601584      4.33214186
    H      1.98876579     -0.86171723      3.81981526
    H      2.25337709      0.38489147      5.01522948
    H      3.38112364     -0.94208015      4.87240680
    C      3.55127088      0.52120243      3.30879419
    N      4.16196076      1.12221311      2.54686533
    C      2.21257474      4.04719296      1.96686206
    H      3.20891822      3.69207502      1.80533470
    H      2.22807350      5.11018500      2.08813369
    H      1.60253787      3.79307621      1.12532847
    C      1.63427433      3.39412043      3.23598180
    N      1.20370339      2.90787824      4.18089913
    C      4.87700101      0.93080457     -1.24230543
    H      4.33644806      0.78090818     -0.33113379
    H      5.07447121      1.97435649     -1.37232086
    H      5.80236170      0.39522952     -1.20028092
    C      4.03895456      0.41543545     -2.42707242
    N      3.41499089      0.03171972     -3.30918530
    C      3.24759551     -3.28834248     -2.62485415
    H      2.93508770     -4.29593285     -2.44596674
    H      3.18110061     -3.07472826     -3.67120327
    H      2.61471501     -2.61706839     -2.08286480
    C      4.70395353     -3.11174294     -2.15641640
    N      5.78827828     -2.98025656     -1.80764321
    C      1.34938508      0.80068111      0.19915818
    H      0.68363984      1.51719375     -0.23476935
    H      1.78401557      0.20318090     -0.57478557
    H      2.12361730      1.31084686      0.73319420
    C      0.56770052     -0.10486674      1.16897896
    N     -0.01429917     -0.77908828      1.89105461
    C      0.06132373     -3.60481958     -0.25219850
    H     -0.25498483     -4.38375346      0.40970111
    H     -0.56798043     -2.74920290     -0.12260122
    H      1.07420685     -3.33920756     -0.03215960
    C     -0.03549555     -4.09746914     -1.70805648
    N     -0.10758190     -4.46426912     -2.79200891
    C     -6.25100636     -0.83988168      0.03841143
    H     -7.28202215     -1.09169561      0.17441283
    H     -6.03246669      0.06542149      0.56525644
    H     -5.63773917     -1.63032015      0.41789722
    C     -5.96429393     -0.64277682     -1.46177045
    N     -5.75082349     -0.49602329     -2.57872404
    C     -1.18495273      0.62219530      4.83894923
    H     -0.87424526      0.91136527      3.85673653
    H     -0.71679274      1.25655822      5.56235023
    H     -2.24799689      0.71452091      4.91839859
    C     -0.77595000     -0.83988414      5.09709737
    N     -0.47142887     -1.92846875      5.28930039
    C     -2.76917322     -2.67214797      2.54531322
    H     -2.57266179     -2.94419596      3.56132175
    H     -1.86445591     -2.73604774      1.97759631
    H     -3.49733910     -3.33844157      2.13212274
    C     -3.30610580     -1.22966706      2.49479375
    N     -3.70587652     -0.15567445      2.45717970
    C      5.88255102     -1.75280464      1.50971818
    H      5.99088680     -2.31710740      2.41233988
    H      6.13554285     -0.72996962      1.69600489
    H      6.53420562     -2.15056090      0.76002803
    C      4.42461126     -1.84027682      1.02149661
    N      3.33910885     -1.90540383      0.65799347
    C     -4.27573717      2.38226400     -4.06716316
    H     -3.91525851      3.35261606     -3.79629012
    H     -4.82231180      1.96340326     -3.24819372
    H     -4.91771495      2.46528917     -4.91914346
    C     -3.08392785      1.46903297     -4.40950747
    N     -2.19657165      0.78909095     -4.66439838
    C     -5.06082646      5.44933018     -1.11307701
    H     -5.86556443      4.86028427     -0.72536334
    H     -4.51818764      4.87892526     -1.83770135
    H     -5.45423999      6.33074450     -1.57484933
    C     -4.11737653      5.84949563      0.03643152
    N     -3.41493517      6.14743699      0.89229286
    C     -3.24131595      3.24843485      2.87600688
    H     -3.04972502      2.90099102      3.86972510
    H     -4.04041584      2.68040792      2.44742332
    H     -3.51493842      4.28241551      2.90623642
    C     -1.97314310      3.07786885      2.01912598
    N     -1.02893077      2.95087472      1.38113921
