120
Energy:   -587.09554565
    C      5.36022281     -5.42985829      1.34295779
    H      5.94543655     -4.83434892      0.67378393
    H      5.74707997     -6.42725418      1.36398321
    H      5.40425041     -5.00943095      2.32591328
    C      3.89779792     -5.45654327      0.86108502
    N      2.80895612     -5.47641145      0.50230885
    C      0.90073419     -1.54364144     -4.79739302
    H      0.83452793     -2.60477316     -4.91787698
    H      1.90857148     -1.22747210     -4.96827319
    H      0.25232632     -1.06372228     -5.50034674
    C      0.47871127     -1.16217666     -3.36631606
    N      0.16449602     -0.87815879     -2.30081421
    C     -0.31534644      5.65502669     -0.58204663
    H     -0.69268045      5.47485895      0.40286900
    H     -0.45512877      6.68535438     -0.83460324
    H      0.72772018      5.41850631     -0.61317921
    C     -1.07232300      4.77184286     -1.59129031
    N     -1.63592646      4.11427235     -2.34271810
    C      1.00001555      2.36103050     -3.59676920
    H      0.66863995      3.13450926     -4.25769357
    H      0.15175177      1.84496654     -3.19798902
    H      1.61624716      1.67160454     -4.13514596
    C      1.81090299      2.98280475     -2.44461542
    N      2.41464556      3.44574394     -1.58678456
    C      1.16178317     -3.93686999      3.30759832
    H      1.06845012     -4.81357694      2.70131947
    H      0.85479408     -3.07994031      2.74516760
    H      0.54235717     -4.03513507      4.17452075
    C      2.62946079     -3.76697694      3.74194697
    N      3.72221349     -3.64048384      4.06533928
    C     -2.35901450      0.78560364     -1.02740235
    H     -2.47774186      0.13202956     -1.86623780
    H     -2.22212722      0.20476674     -0.13926415
    H     -1.50393873      1.41040206     -1.18027953
    C     -3.61582338      1.66299157     -0.87833232
    N     -4.55157472      2.31624676     -0.76734290
    C     -2.86306653     -2.64504175     -3.58496259
    H     -2.27309289     -3.47939493     -3.90227326
    H     -2.35022194     -1.73575137     -3.81965496
    H     -3.80648978     -2.66286775     -4.08947612
    C     -3.09247657     -2.72723935     -2.06436580
    N     -3.26328276     -2.78843919     -0.93221237
    C      2.44177772     -0.24448694      4.50432980
    H      1.73231320     -0.82247333      3.94981018
    H      1.92310512      0.43319068      5.14979930
    H      3.05365189     -0.89775896      5.09062730
    C      3.32873726      0.55225701      3.52959812
    N      3.98911895      1.14546910      2.80386607
    C      2.07256394      4.05341455      2.05911205
    H      1.50967241      3.77966348      1.19129084
    H      3.07697144      3.69827308      1.95941642
    H      2.07916358      5.11876485      2.15853169
    C      1.42761132      3.42524051      3.30852530
    N      0.94741477      2.95753638      4.23877026
    C      4.94560234      0.92368327     -0.91947761
    H      4.34845604      0.77531276     -0.04409045
    H      5.14488487      1.96773368     -1.04253975
    H      5.86947812      0.39412600     -0.81497049
    C      4.18853690      0.39673941     -2.15267755
    N      3.62486727      0.00440576     -3.07085096
    C      3.41986826     -3.31160225     -2.36865853
    H      3.09702391     -4.31780544     -2.20065008
    H      3.42197532     -3.10840616     -3.41918506
    H      2.75233016     -2.63588132     -1.87601951
    C      4.84224860     -3.12840499     -1.80752312
    N      5.90127541     -2.99200630     -1.38973230
    C      1.33168561      0.78647262      0.28125778
    H      2.06921266      1.30026188      0.86175293
    H      0.69814796      1.50004746     -0.20282909
    H      1.81625795      0.18148055     -0.45635548
    C      0.48459513     -0.10927946      1.20411527
    N     -0.14610222     -0.77620759      1.89122462
    C      0.08215222     -3.61678514     -0.21381465
    H     -0.27469378     -4.39131531      0.43245474
    H     -0.55825361     -2.76322509     -0.13498125
    H      1.07667032     -3.34409122      0.07161638
    C      0.08608676     -4.12300539     -1.66823054
    N      0.08901621     -4.49990937     -2.75110928
    C     -6.23611608     -0.84279000     -0.37609850
    H     -5.65218873     -1.62674776      0.05903281
    H     -7.27522330     -1.08462429     -0.29441945
    H     -6.04186931      0.07466445      0.13911468
    C     -5.86056683     -0.68686455     -1.86144358
    N     -5.58095334     -0.57077096     -2.96735051
    C     -1.49684841      0.69268193      4.73275800
    H     -1.06943349      1.33843088      5.47115150
    H     -2.56239158      0.78895753      4.74850170
    H     -1.12847483      0.96391858      3.76547796
    C     -1.10860267     -0.76565936      5.03952491
    N     -0.81953606     -1.85146073      5.26792681
    C     -2.94582819     -2.63133351      2.37806737
    H     -2.77642561     -2.87672589      3.40567894
    H     -2.02700037     -2.71262174      1.83580659
    H     -3.66525328     -3.30654639      1.96404540
    C     -3.47663307     -1.18935327      2.27540703
    N     -3.87184144     -0.11573343      2.19897173
    C      5.77512678     -1.74001284      1.91703580
    H      6.47500277     -2.14428358      1.21586610
    H      5.82371549     -2.29563883      2.83017214
    H      6.01499605     -0.71523580      2.10989284
    C      4.35266214     -1.83339216      1.33439127
    N      3.29357255     -1.90291731      0.90058594
    C     -3.99511819      2.33910071     -4.37442128
    H     -3.66246416      3.25917623     -3.94117481
    H     -4.67760259      1.85651769     -3.70641846
    H     -4.48687227      2.53952411     -5.30334941
    C     -2.78386351      1.42097701     -4.62243537
    N     -1.88202935      0.73739218     -4.80709313
    C     -4.95193693      5.48117915     -1.46800208
    H     -5.78382762      4.88161415     -1.16242087
    H     -4.35335386      4.93215995     -2.16454735
    H     -5.30908245      6.37641466     -1.93265200
    C     -4.10212430      5.84581252     -0.23655537
    N     -3.46940017      6.11729863      0.68031268
    C     -3.47598765      3.28652297      2.55767743
    H     -3.61461125      2.51652083      3.28759550
    H     -4.27161251      3.24814966      1.84324923
    H     -3.47677540      4.24090259      3.04147285
    C     -2.13023208      3.07638573      1.83907859
    N     -1.12825589      2.91992900      1.30404909
