120
Energy:   -587.08617938
    C      4.78270361     -2.64859182      0.21938404
    H      4.46315657     -3.12447795      1.12288959
    H      5.79278470     -2.92989403      0.00606655
    H      4.14956542     -2.95346752     -0.58751492
    C      4.70009633     -1.12001083      0.38736080
    N      4.63859145      0.01808720      0.51242714
    C      0.43106582     -1.76712983     -4.61457832
    H      1.13409858     -2.32091297     -5.20106733
    H     -0.56246040     -2.07987397     -4.85951882
    H      0.61498186     -1.94485249     -3.57559390
    C      0.58445791     -0.26418786     -4.91330279
    N      0.69866529      0.85482075     -5.13571673
    C      0.55920857      5.46418820      0.52332161
    H      0.18729840      5.46509080      1.52660731
    H      1.20209667      6.30751123      0.38049220
    H      1.10862602      4.56302470      0.34741279
    C     -0.62154959      5.54613629     -0.46191677
    N     -1.50067772      5.60715037     -1.19547152
    C     -1.69682734     -0.43600986     -1.86570687
    H     -2.16427839     -1.23682158     -2.39964534
    H     -0.68094398     -0.33814635     -2.18711442
    H     -2.22165687      0.47608391     -2.05945416
    C     -1.73079778     -0.73702365     -0.35579406
    N     -1.75609032     -0.96114211      0.76840466
    C      2.06014499     -4.73701451     -2.92978810
    H      2.24857829     -3.68674731     -2.85021495
    H      1.24072870     -4.90277084     -3.59760610
    H      2.93264277     -5.22834772     -3.30693316
    C      1.71254362     -5.30289742     -1.54034584
    N      1.45373860     -5.72422298     -0.50584291
    C      1.35726155      1.33185146      0.65734242
    H      0.76271905      0.75991985     -0.02406320
    H      2.35850883      1.40040628      0.28625861
    H      0.94432435      2.31430409      0.75309616
    C      1.36623159      0.64233914      2.03432910
    N      1.37291019      0.12896587      3.05955826
    C     -4.55722370     -2.67303062     -3.65634524
    H     -3.53344741     -2.82848804     -3.92581746
    H     -4.87691592     -1.71428811     -4.00778340
    H     -5.16258964     -3.43560565     -4.10009121
    C     -4.69930426     -2.73162277     -2.12403324
    N     -4.80508970     -2.77524728     -0.98315730
    C      1.97139471     -2.19734244      5.48412961
    H      1.58711928     -1.19873173      5.48109278
    H      2.30827452     -2.44687902      6.46858000
    H      1.20002940     -2.87723690      5.18809215
    C      3.14980051     -2.29690963      4.49769859
    N      4.02717719     -2.37104193      3.76325586
    C      0.79063540      3.23487388      4.82598615
    H     -0.17087001      3.62723657      4.56818965
    H      1.10933583      3.65494768      5.75704315
    H      0.72871716      2.17059205      4.91747061
    C      1.80491184      3.59734354      3.72532315
    N      2.56008675      3.86721868      2.90582951
    C      5.00626367      3.40061256      0.70226567
    H      5.91782783      3.04060532      0.27291062
    H      4.59188423      2.64916975      1.34142329
    H      5.20503881      4.28390436      1.27251398
    C      4.00459994      3.72899049     -0.42042650
    N      3.25881576      3.97348278     -1.25632185
    C      3.09013719      0.71307313     -2.61486242
    H      3.72413265      1.15567519     -1.87523187
    H      2.09669552      0.62585434     -2.22709236
    H      3.07873803      1.32906787     -3.48968791
    C      3.62387826     -0.68498755     -2.97838245
    N      4.02127274     -1.72590727     -3.24903964
    C      1.10164773     -3.00569507      1.57250458
    H      0.61888476     -3.95493715      1.46867988
    H      0.51124024     -2.37211965      2.20091549
    H      2.06779320     -3.14301563      2.01137253
    C      1.25568400     -2.35373093      0.18584831
    N      1.37037100     -1.86831399     -0.84658030
    C     -1.93780398     -4.57295073      0.05883673
    H     -2.96479943     -4.86830092      0.11313949
    H     -1.77173309     -3.73888486      0.70818538
    H     -1.31545751     -5.38935839      0.36060233
    C     -1.59442928     -4.17328114     -1.38821477
    N     -1.33877120     -3.87570897     -2.46561038
    C     -6.83113333      0.22180618     -0.57324090
    H     -6.67862953     -0.77007955     -0.20201931
    H     -7.77933197      0.27634387     -1.06603302
    H     -6.81251337      0.91454642      0.24202798
    C     -5.71272442      0.57385917     -1.57164973
    N     -4.88001815      0.83597863     -2.31501048
    C     -1.76501122      0.10013677      4.10603647
    H     -2.75897433      0.33875292      4.42226401
    H     -1.60761900      0.47037284      3.11454667
    H     -1.06047972      0.55306288      4.77191363
    C     -1.57497289     -1.42803305      4.11954403
    N     -1.43348071     -2.56582494      4.12960102
    C     -4.51109948     -2.39714532      2.35098564
    H     -4.55733156     -2.69452489      3.37779047
    H     -3.55442111     -2.65572672      1.94749929
    H     -5.27833619     -2.89912716      1.79938691
    C     -4.71721460     -0.87449580      2.24776261
    N     -4.87067667      0.25918598      2.17090838
    C      4.69209751      1.03350798      3.96646510
    H      4.94392487      2.02985772      3.66852153
    H      4.16005564      0.54827961      3.17502087
    H      5.58744811      0.48833341      4.18101365
    C      3.80675982      1.08251924      5.22558188
    N      3.14758567      1.11901035      6.16305156
    C     -2.70510308      2.22861822     -4.65513453
    H     -2.72454255      2.33350806     -3.59046537
    H     -3.54905838      2.73193663     -5.07858361
    H     -1.80374175      2.65842079     -5.03947371
    C     -2.75974663      0.73465592     -5.02485165
    N     -2.80043123     -0.37766691     -5.30012284
    C      0.85123998      4.12991284     -3.80138887
    H      0.27260296      5.02985913     -3.81465777
    H      0.83099748      3.67853371     -4.77130959
    H      1.86200726      4.35965494     -3.53593233
    C      0.25842846      3.15365286     -2.76838793
    N     -0.18294667      2.42678293     -1.99927177
    C     -3.09441582      2.60529935      0.15874732
    H     -3.92681609      3.26690770      0.27826456
    H     -3.43532708      1.59193824      0.20091210
    H     -2.62836332      2.78574616     -0.78736742
    C     -2.07648974      2.85185230      1.28774605
    N     -1.31859750      3.03542217      2.12833692
