120
Energy:   -587.08159917
    C      5.67848751     -4.67640958      1.58367813
    H      6.23041242     -3.97370100      0.99505286
    H      6.20669503     -5.60634326      1.61713345
    H      5.56242675     -4.29620622      2.57709365
    C      4.29094251     -4.89658433      0.95293100
    N      3.25785218     -5.06051444      0.48331109
    C      0.83255931     -1.29858357     -5.24229602
    H      1.59994023     -1.46155475     -5.96994093
    H      1.17337369     -0.58932723     -4.51724423
    H     -0.04360715     -0.92068416     -5.72646899
    C      0.49861066     -2.62872087     -4.54171549
    N      0.24997071     -3.61906854     -4.02010144
    C      0.77885977      5.98233111     -0.68063859
    H      0.60812426      6.54259538      0.21482415
    H     -0.13210859      5.51123269     -0.98576483
    H      1.11664231      6.64014589     -1.45399605
    C      1.84955230      4.90723546     -0.41722474
    N      2.64673156      4.10677788     -0.22110116
    C      0.48891195      2.24783102     -3.58168242
    H      0.93631654      3.13250229     -3.98428154
    H     -0.21584906      1.85344031     -4.28358483
    H      1.24868294      1.51887305     -3.39124237
    C     -0.23419077      2.59134867     -2.26611482
    N     -0.77257361      2.84711317     -1.28661495
    C      1.14883666     -3.84525512      3.12511809
    H      1.23297029     -4.60150592      2.37285056
    H      0.77137010     -2.94558729      2.68578236
    H      0.47881860     -4.17670518      3.89070006
    C      2.53534443     -3.57462764      3.73827139
    N      3.56766249     -3.37313318      4.19479189
    C     -2.46671215     -0.02188987     -1.09299460
    H     -1.53581598      0.04027547     -0.56909768
    H     -3.02653827     -0.85733194     -0.72757656
    H     -3.02488283      0.87744999     -0.93636638
    C     -2.19742660     -0.20332686     -2.59837360
    N     -1.99693128     -0.33841494     -3.71919668
    C     -3.35637000     -3.57981338     -3.76663999
    H     -3.63071244     -2.60238890     -4.10468998
    H     -4.15110773     -4.26533691     -3.97484308
    H     -2.46955583     -3.89698012     -4.27444406
    C     -3.09404275     -3.54344947     -2.24958295
    N     -2.89872819     -3.51637488     -1.12006502
    C      1.85187854     -0.35748475      5.05094852
    H      1.29893551     -0.88276446      4.30045840
    H      1.17492655      0.17723540      5.68396468
    H      2.41114956     -1.05669813      5.63679464
    C      2.81707749      0.63527441      4.37684153
    N      3.53571198      1.37442872      3.87493823
    C      1.71772284      4.39326832      3.40097095
    H      2.19324861      4.90125269      4.21382230
    H      1.20638168      5.10429534      2.78625973
    H      2.45614924      3.88358348      2.81800705
    C      0.70648641      3.37236653      3.95483052
    N     -0.04642507      2.61225874      4.36720414
    C      4.16276761      0.95165915     -1.38227790
    H      3.42032205      0.49001491     -0.76538297
    H      4.09942439      2.01500858     -1.28140803
    H      5.13427779      0.62181921     -1.07851373
    C      3.92425226      0.56037575     -2.85251860
    N      3.74666674      0.26904747     -3.94717964
    C      3.62977656     -3.20400927     -2.62579342
    H      3.07096693     -2.37829498     -3.01415909
    H      2.98702065     -3.82395201     -2.03635731
    H      4.03150334     -3.77552575     -3.43627698
    C      4.78094850     -2.67760903     -1.74869255
    N      5.63804834     -2.28568013     -1.09565108
    C      1.16118237      1.43951074      1.05767289
    H      0.67875031      2.38172286      1.21386448
    H      1.30390688      1.28137246      0.00909238
    H      2.11068994      1.43886456      1.55096189
    C      0.28352461      0.31195855      1.63207946
    N     -0.36993148     -0.52755532      2.05975126
    C      0.40485784     -2.99319226     -0.48891833
    H      1.24119522     -3.32519057      0.09006102
    H      0.15762953     -3.73689403     -1.21739957
    H     -0.43395164     -2.83260093      0.15568090
    C      0.76424042     -1.67611736     -1.20148965
    N      1.03181708     -0.69549524     -1.73203139
    C     -6.29017005      0.05815418     -0.31093399
    H     -7.16301888      0.65960346     -0.45685814
    H     -5.49097766      0.67109593      0.05030417
    H     -6.50158255     -0.70985203      0.40346808
    C     -5.87988314     -0.58430744     -1.64903254
    N     -5.57440589     -1.06264932     -2.64530773
    C     -2.18526106      0.07795967      5.04043591
    H     -1.90414500      0.49834630      4.09748893
    H     -1.82152656      0.70041007      5.83110134
    H     -3.25175847      0.01403673      5.09871304
    C     -1.57840370     -1.33094737      5.17573228
    N     -1.12657082     -2.37994270      5.27646657
    C     -2.82090809     -3.05944407      2.26172220
    H     -2.97050286     -3.45059879      3.24636405
    H     -1.77248585     -2.95665683      2.07425308
    H     -3.24775806     -3.72808978      1.54366153
    C     -3.50020409     -1.68205804      2.14785975
    N     -4.00597084     -0.65653152      2.06308399
    C      5.48262821     -0.94517957      2.19150015
    H      5.62516299     -1.50462717      3.09238993
    H      5.58421644      0.09929663      2.40042216
    H      6.21674836     -1.23766548      1.47009965
    C      4.07468681     -1.22229758      1.63247724
    N      3.02641044     -1.42862453      1.21625927
    C     -4.63259666      1.66512284     -4.61190106
    H     -5.36638368      1.98064644     -5.32387131
    H     -5.07813678      1.61122738     -3.64056777
    H     -4.25992891      0.70068825     -4.88737114
    C     -3.47160806      2.67664054     -4.58871894
    N     -2.60719928      3.42976145     -4.57145879
    C     -3.20320119      5.21458578     -1.63487797
    H     -2.37228031      4.97790997     -2.26611107
    H     -2.84478136      5.59181885     -0.69992903
    H     -3.81150450      5.95619732     -2.10909153
    C     -4.03946220      3.94491991     -1.38948827
    N     -4.66209654      2.99959596     -1.20678448
    C     -2.69006271      2.54180421      1.81088851
    H     -3.68593894      2.65672170      1.43682341
    H     -2.72699095      2.24389935      2.83791728
    H     -2.17899109      1.79430041      1.24085083
    C     -1.93915609      3.88101832      1.69153684
    N     -1.38007198      4.87812410      1.60267411
