120
Energy:   -587.06770303
    C      5.28803937     -5.36606128      1.31746807
    H      5.93913777     -4.84186483      0.64949417
    H      5.59369098     -6.38933462      1.38370892
    H      5.33477916     -4.91636836      2.28725710
    C      3.84376166     -5.29498514      0.78774168
    N      2.76843125     -5.24206572      0.39333630
    C      0.40471830     -1.85188468     -5.28918890
    H      1.44988269     -1.76550407     -5.50148578
    H      0.09147716     -1.01911045     -4.69482692
    H     -0.14589116     -1.86250126     -6.20658500
    C      0.14376151     -3.15950292     -4.51871108
    N     -0.05053269     -4.13308414     -3.94505531
    C      0.42928559      5.37146110     -1.60276521
    H      0.45903818      4.48436126     -1.00521284
    H      0.12003923      6.19844986     -0.99831888
    H      1.40298494      5.56563659     -2.00164433
    C     -0.56985327      5.17850822     -2.75865912
    N     -1.31375757      5.03484603     -3.61927467
    C      0.79508900      1.81670220     -3.45823760
    H      0.92967009      2.54008082     -2.68137758
    H     -0.09396698      1.25198441     -3.26963123
    H      0.70682623      2.31692401     -4.39998434
    C      2.00800344      0.86840208     -3.49237625
    N      2.91107336      0.16234953     -3.51779402
    C      1.02162932     -3.83463654      3.20293461
    H      0.97072731     -4.60025926      2.45719269
    H      0.61118819     -2.92741359      2.81129231
    H      0.46202988     -4.13703565      4.06334285
    C      2.49102605     -3.60320596      3.60157370
    N      3.58505871     -3.43089536      3.89837862
    C     -2.88676229      0.30838517     -0.54486501
    H     -3.74127289      0.56492299      0.04581271
    H     -2.27484902     -0.38380033     -0.00510537
    H     -3.20845285     -0.13963739     -1.46175654
    C     -2.07460812      1.58021199     -0.85221194
    N     -1.46992242      2.52714487     -1.08104570
    C     -3.29696306     -2.85383809     -3.22520557
    H     -2.46841305     -2.20710097     -3.42554565
    H     -4.17836129     -2.45685281     -3.68394182
    H     -3.09478498     -3.82624813     -3.62325309
    C     -3.51188685     -2.95647477     -1.70373474
    N     -3.67190738     -3.03289245     -0.57093055
    C      2.50398722     -0.07259980      4.42809542
    H      1.81310727     -0.65426715      3.85429391
    H      1.96395246      0.58630127      5.07548320
    H      3.11822050     -0.72402214      5.01398406
    C      3.39154905      0.75380407      3.47894283
    N      4.05237919      1.36909931      2.77225559
    C      2.16759747      4.45700377      2.12863981
    H      2.41720605      5.34936164      2.66370352
    H      1.60378981      4.71068287      1.25533177
    H      3.06530040      3.95171826      1.83930420
    C      1.32778663      3.53479904      3.03188738
    N      0.70250929      2.84817569      3.70439626
    C      4.90056930      1.31657315     -0.89150350
    H      5.28565749      1.26599978      0.10551686
    H      5.70952855      1.44319878     -1.58030680
    H      4.37753136      0.41106623     -1.11819189
    C      3.93481550      2.51036995     -1.00884406
    N      3.21576790      3.39920593     -1.09620944
    C      3.15273709     -3.06756027     -2.52250563
    H      2.62602323     -2.23632807     -2.10235600
    H      2.63523252     -3.97387320     -2.28652893
    H      3.20789135     -2.95463782     -3.58509945
    C      4.57625265     -3.12202419     -1.93749527
    N      5.63612469     -3.16257505     -1.50192846
    C      1.18769191      1.12828654      0.45801616
    H      0.76268285      2.11008093      0.43938126
    H      1.22182234      0.73547054     -0.53668470
    H      2.17947943      1.17647753      0.85668174
    C      0.32283078      0.21123733      1.34268330
    N     -0.32109765     -0.47154750      2.00135820
    C      0.02223667     -3.39028832     -0.39556165
    H      0.83256709     -3.28765870      0.29561991
    H      0.21359207     -4.21525696     -1.04955626
    H     -0.88578795     -3.56509287      0.14280045
    C     -0.11256567     -2.09906993     -1.22392352
    N     -0.21293214     -1.13769914     -1.84067659
    C     -6.52439519     -0.40278712      0.04753290
    H     -7.56713551     -0.62732463      0.13224246
    H     -6.33112017      0.55979394      0.47295218
    H     -5.95635257     -1.14409824      0.56972490
    C     -6.11935619     -0.39808424     -1.43824006
    N     -5.81778624     -0.39458273     -2.54446556
    C     -1.47246343      0.59114613      5.15868221
    H     -1.20383143      0.96039353      4.19100799
    H     -1.01897208      1.20118821      5.91173821
    H     -2.53637053      0.62040851      5.26888428
    C     -0.98054946     -0.86041721      5.30896366
    N     -0.61429715     -1.94117210      5.42085503
    C     -2.87887444     -2.69419039      2.68624966
    H     -2.67589886     -3.00721848      3.68910285
    H     -1.96642036     -2.67244103      2.12781112
    H     -3.56042022     -3.38091125      2.22929353
    C     -3.50334400     -1.28659956      2.70430006
    N     -3.96828998     -0.23858420      2.71773939
    C      5.56612587     -1.62261897      1.64662968
    H      5.63519611     -2.23296619      2.52276081
    H      5.85899020     -0.62154564      1.88533822
    H      6.21295378     -2.01231159      0.88857136
    C      4.11425942     -1.62410645      1.13313034
    N      3.03327884     -1.62521394      0.75080674
    C     -3.82313692      2.30258723     -3.90468696
    H     -4.55968100      1.97638818     -3.20041629
    H     -4.30935619      2.71037056     -4.76619881
    H     -3.20676369      3.05252548     -3.45460281
    C     -2.95038690      1.10581423     -4.32616268
    N     -2.30058483      0.21476233     -4.63997051
    C     -3.89360376      5.24626309     -1.20168616
    H     -4.35825333      6.08872511     -0.73343550
    H     -3.96807998      5.34302190     -2.26469609
    H     -2.86254306      5.20464634     -0.91870032
    C     -4.60162353      3.95438188     -0.75296469
    N     -5.12877643      2.99251761     -0.41887115
    C     -2.59364947      2.91302541      2.38683530
    H     -2.71763199      3.03936938      3.44209154
    H     -2.01642738      2.03198100      2.19848859
    H     -3.55350219      2.81627587      1.92399475
    C     -1.86450395      4.13847911      1.80527700
    N     -1.32162197      5.05088509      1.37228041
