120
Energy:   -587.04877560
    C      4.71879459     -2.71924685      0.36667945
    H      4.33296631     -3.22969456      1.22428067
    H      5.75434122     -2.95935321      0.24464988
    H      4.17685797     -3.02465114     -0.50391345
    C      4.56366921     -1.19945345      0.56100947
    N      4.44817132     -0.06789819      0.70569700
    C      0.58151856     -1.57690780     -4.72996985
    H      1.30089047     -2.10281177     -5.32227825
    H     -0.40477275     -1.87266862     -5.02092358
    H      0.73292025     -1.80830272     -3.69631951
    C      0.74777799     -0.06128631     -4.94641682
    N      0.87156570      1.06716279     -5.10757142
    C      0.53705628      5.40760570      0.71228239
    H      0.19656740      5.71325025      1.67952016
    H      1.35983049      6.02271658      0.41298270
    H      0.85149473      4.38559773      0.75136257
    C     -0.60963245      5.55333393     -0.30529722
    N     -1.46339433      5.66183523     -1.06293148
    C     -1.62655362     -0.37784238     -1.98279853
    H     -2.15472728      0.52691890     -2.20037567
    H     -2.05723468     -1.18463656     -2.53822274
    H     -0.59831937     -0.26523251     -2.25657296
    C     -1.72640847     -0.68091631     -0.47622121
    N     -1.80075494     -0.90656863      0.64549408
    C      2.22795472     -4.59910615     -3.12550540
    H      2.36348215     -3.54021070     -3.05289059
    H      1.41756573     -4.81011657     -3.79157100
    H      3.12382748     -5.04848338     -3.50016683
    C      1.90986321     -5.17266052     -1.73214500
    N      1.67302963     -5.59969782     -0.69472486
    C      1.24623605      1.25568630      0.82284170
    H      0.24553949      1.28937480      0.44551999
    H      1.86617430      0.71127762      0.14152324
    H      1.62145135      2.25219347      0.92813199
    C      1.25421384      0.55651494      2.19495531
    N      1.26015367      0.03595009      3.21655627
    C     -4.39956750     -2.56165084     -3.92921178
    H     -3.37241304     -2.70188331     -4.19414336
    H     -4.71887728     -1.58928713     -4.24138028
    H     -4.99742336     -3.30570627     -4.41279113
    C     -4.55786949     -2.68841438     -2.40262360
    N     -4.67573252     -2.78279560     -1.26600930
    C      1.79656553     -2.38257287      5.56743308
    H      1.44410383     -1.37326549      5.61181261
    H      2.08847054     -2.70178357      6.54610314
    H      1.01590059     -3.01729400      5.20330339
    C      3.00729799     -2.46227239      4.61907929
    N      3.90874334     -2.52161232      3.91298680
    C      0.59445405      3.08792839      5.01041498
    H     -0.36691388      3.42358207      4.68176852
    H      0.82942955      3.54354415      5.94961671
    H      0.58130846      2.02400127      5.12348739
    C      1.65883787      3.48035235      3.96893021
    N      2.45132001      3.77252982      3.19349746
    C      4.90466098      3.27054212      1.00654374
    H      5.79509515      2.86439090      0.57402974
    H      4.43366756      2.52814988      1.61639457
    H      5.15529821      4.11945077      1.60773770
    C      3.94024788      3.70179305     -0.11396062
    N      3.22219849      4.02287896     -0.94822704
    C      3.16344409      0.80634804     -2.50478962
    H      3.69555342      1.22705327     -1.67728314
    H      2.13134663      0.69469675     -2.24554472
    H      3.25038470      1.45472596     -3.35151655
    C      3.75792482     -0.57164054     -2.85024599
    N      4.20054275     -1.59761569     -3.10745397
    C      1.04074096     -2.91550919      1.47694240
    H      1.06739498     -3.98299303      1.40861962
    H      0.09841583     -2.60728459      1.87933529
    H      1.82919579     -2.57930672      2.11741564
    C      1.22383763     -2.30662263      0.07432600
    N      1.36016143     -1.85327891     -0.96998566
    C     -1.77903883     -4.54538512     -0.21581413
    H     -2.76253400     -4.96545622     -0.18149655
    H     -1.73539551     -3.68700122      0.42150168
    H     -1.06858697     -5.27306404      0.11681272
    C     -1.44887376     -4.12891345     -1.66120071
    N     -1.20305085     -3.81883137     -2.73735672
    C     -6.79098217      0.15266185     -0.81410301
    H     -6.61837969     -0.84821762     -0.47742979
    H     -7.72028088      0.19588798     -1.34271865
    H     -6.82907597      0.81086990      0.02863664
    C     -5.64707661      0.58363998     -1.75076620
    N     -4.79538693      0.90452279     -2.44815452
    C     -1.94745307      0.01049993      4.05135127
    H     -2.94116492      0.22180449      4.38718953
    H     -1.81413483      0.40065990      3.06398075
    H     -1.24233956      0.46765075      4.71371609
    C     -1.72396542     -1.51311754      4.03576043
    N     -1.55756871     -2.64752000      4.02415235
    C     -4.53630425     -2.51253670      2.08887089
    H     -4.59947502     -2.85999399      3.09891201
    H     -3.56304873     -2.72555739      1.69862101
    H     -5.27523752     -3.00797663      1.49438288
    C     -4.78263488     -0.99280154      2.05245309
    N     -4.96603924      0.13871037      2.02533838
    C      4.55413407      0.88675695      4.21128028
    H      4.82717813      1.88601449      3.94326634
    H      4.03834905      0.42669238      3.39445379
    H      5.43592604      0.32476114      4.43822238
    C      3.63437667      0.91957602      5.44601476
    N      2.94957549      0.94401131      6.36533071
    C     -2.55606716      2.41253837     -4.68136421
    H     -2.62409480      2.47616243     -3.61542594
    H     -3.37689308      2.93788105     -5.12313221
    H     -1.63565778      2.85053514     -5.00679393
    C     -2.60148403      0.93447599     -5.11132805
    N     -2.63529895     -0.16600863     -5.43145567
    C      0.96666691      4.27187070     -3.61234484
    H      0.38116594      5.16744267     -3.60604817
    H      0.98514431      3.86477227     -4.60170248
    H      1.96523879      4.49638203     -3.30033850
    C      0.34555882      3.24570363     -2.64652607
    N     -0.11688439      2.48167560     -1.92743010
    C     -3.11913030      2.61626899      0.14487247
    H     -3.92794804      3.31098027      0.23481850
    H     -3.50152911      1.61747248      0.17767138
    H     -2.61467465      2.77467888     -0.78535863
    C     -2.13070624      2.82593296      1.30705098
    N     -1.39477960      2.98203732      2.17234571
