120
Energy:   -587.01989677
    C      5.01377506     -5.28085279      1.78183262
    H      5.50405908     -4.59755501      1.12029962
    H      5.50713885     -6.22958469      1.74442876
    H      5.05061000     -4.89881941      2.78062828
    C      3.54504015     -5.44866888      1.35025932
    N      2.45150025     -5.57361559      1.02893338
    C      0.50394454     -2.03790141     -4.77626906
    H     -0.25554954     -1.87455188     -5.51205833
    H      0.68884918     -3.08753217     -4.68148177
    H      1.40378960     -1.54291148     -5.07654049
    C      0.03581878     -1.47473344     -3.42153658
    N     -0.31272214     -1.05542928     -2.41287667
    C     -0.01501998      5.79215354     -1.85052937
    H      1.04075842      5.71078671     -2.00418998
    H     -0.28705186      5.26782187     -0.95835559
    H     -0.28292939      6.82354652     -1.75382282
    C     -0.75744114      5.17947061     -3.05262357
    N     -1.31020744      4.72330032     -3.94763733
    C      0.95319078      1.93982366     -3.87900367
    H      1.50169579      1.10246027     -4.25697853
    H      0.70525905      2.59738657     -4.68587415
    H      0.05489616      1.59567236     -3.41046792
    C      1.81346423      2.69392389     -2.84805147
    N      2.45397693      3.25538579     -2.08046070
    C      0.96872589     -3.71004966      3.69959412
    H      0.68659301     -2.82107918      3.17515852
    H      0.29216566     -3.87479363      4.51201321
    H      0.93346127     -4.54485352      3.03119453
    C      2.39928454     -3.55090066      4.24710992
    N      3.46440047     -3.43240700      4.65476033
    C     -2.62085627      0.41535142     -0.67159894
    H     -3.49143251      0.67501202     -0.10629056
    H     -2.07553654     -0.34762731     -0.15643981
    H     -2.91558951      0.05451352     -1.63483693
    C     -1.72853291      1.65909235     -0.84032214
    N     -1.06415760      2.58511401     -0.96594422
    C     -3.13983589     -3.00591566     -3.30370645
    H     -4.01125649     -3.44038808     -3.74728285
    H     -2.28210133     -3.59617423     -3.55025329
    H     -3.00777752     -2.01171812     -3.67657495
    C     -3.31020384     -2.96197024     -1.77379026
    N     -3.43705053     -2.92925087     -0.63469811
    C      2.22663167      0.20083094      4.51316221
    H      1.60535574     -0.53052486      4.03983874
    H      1.61364176      0.90534935      5.03546124
    H      2.88303760     -0.28321603      5.20578683
    C      3.05831943      0.93612381      3.44581042
    N      3.67754877      1.48358278      2.65111849
    C      1.50516489      4.06452842      1.19285103
    H      1.08595072      3.65507485      0.29758156
    H      2.55327548      3.85172347      1.22567363
    H      1.35579280      5.12398616      1.20452828
    C      0.81500708      3.43528723      2.41732551
    N      0.30115322      2.96678857      3.32900241
    C      5.14445045      1.33567410     -0.86347342
    H      4.68677498      1.59554041      0.06813962
    H      4.40178363      1.32000541     -1.63360300
    H      5.89478799      2.05883744     -1.10622318
    C      5.79212205     -0.05660503     -0.74651048
    N      6.27434299     -1.09322013     -0.65942626
    C      3.63063053     -3.26856312     -1.84727957
    H      3.04377137     -3.35662536     -0.95691922
    H      4.66630586     -3.38453603     -1.60473891
    H      3.33993572     -4.02808741     -2.54263450
    C      3.40305355     -1.88175537     -2.47701997
    N      3.23361215     -0.84921396     -2.94589032
    C      1.60369410      0.43778695     -0.02276248
    H      2.15992878      1.26998647      0.35532099
    H      1.05021161      0.74161044     -0.88661867
    H      2.27714646     -0.34976254     -0.28945859
    C      0.63046330     -0.06375533      1.06023205
    N     -0.09415127     -0.43717636      1.86657070
    C     -0.02548520     -3.52690679      0.08211843
    H     -0.67581794     -2.68005919      0.01271640
    H      0.92602091     -3.21588533      0.46000845
    H     -0.45255300     -4.25130070      0.74375704
    C      0.15570899     -4.15078809     -1.31414114
    N      0.29061630     -4.61529607     -2.35371986
    C     -6.27678781     -0.40022579     -0.23674994
    H     -7.33347934     -0.55980205     -0.18347129
    H     -6.03892337      0.55569841      0.18101617
    H     -5.77219466     -1.16595350      0.31456294
    C     -5.82452505     -0.44429608     -1.70818332
    N     -5.48779487     -0.47710842     -2.80373236
    C     -1.70877814      0.82615367      4.88009367
    H     -2.75416488      0.91717469      5.08933499
    H     -1.53844873      0.98895595      3.83635883
    H     -1.16678566      1.55350366      5.44763681
    C     -1.22941290     -0.58600493      5.26430332
    N     -0.87250370     -1.63742120      5.55036487
    C     -2.78814624     -2.61227761      2.68051432
    H     -2.80968000     -2.92611657      3.70322717
    H     -1.77263473     -2.53581182      2.35220280
    H     -3.30523621     -3.32846037      2.07669373
    C     -3.47450935     -1.23986745      2.55014552
    N     -3.98553789     -0.21804571      2.45308002
    C      5.67024940     -1.49219274      2.66021852
    H      5.64983768     -1.90571150      3.64687235
    H      5.78982372     -0.43062342      2.72081262
    H      6.48868244     -1.91270764      2.11411077
    C      4.34959527     -1.81967461      1.93894998
    N      3.36630824     -2.06349975      1.40193278
    C     -3.47775998      2.14291264     -4.14627271
    H     -2.92961368      2.52575110     -3.31088625
    H     -4.43142193      1.78846536     -3.81491927
    H     -3.61732887      2.92052777     -4.86789195
    C     -2.69324431      0.98286402     -4.78691486
    N     -2.10913674      0.11915509     -5.26390206
    C     -4.15745743      5.31750643     -1.85370689
    H     -4.94011551      6.03311072     -1.71137978
    H     -3.95495956      5.21361876     -2.89922162
    H     -3.27379437      5.65061141     -1.35063656
    C     -4.59427544      3.95766717     -1.27783605
    N     -4.91950630      2.94520503     -0.84907403
    C     -2.97105185      3.09002616      2.18314999
    H     -3.09593734      3.23310154      3.23616150
    H     -2.26124671      2.30804458      2.01115998
    H     -3.91005883      2.82191521      1.74579257
    C     -2.46142991      4.39545514      1.54460425
    N     -2.08199321      5.36740635      1.06917793
