120
Energy:   -587.01320083
    C     -4.95404519      1.65753891     -3.80530647
    H     -4.65428443      0.74270897     -4.27235019
    H     -4.19232583      2.39581756     -3.94540407
    H     -5.86759674      1.99976304     -4.24485773
    C     -5.16695215      1.41909343     -2.29884891
    N     -5.32547105      1.24155994     -1.17722278
    C      0.14587447      5.10722687     -0.49087458
    H      1.15542754      5.00878317     -0.15026980
    H     -0.02473605      6.11255392     -0.81507924
    H     -0.02228622      4.43590950     -1.30693467
    C     -0.81955172      4.76818734      0.66004005
    N     -1.53835539      4.51575700      1.51694831
    C     -0.34125681     -0.82680570      5.04940128
    H     -0.41050429     -1.86044217      4.78163156
    H     -1.28737190     -0.48981218      5.41845506
    H      0.40213860     -0.70421380      5.80916017
    C      0.05017329     -0.00059985      3.81014086
    N      0.34161078      0.61454797      2.88745516
    C     -0.02480589     -6.32202851      0.87469628
    H     -0.32012274     -7.35045819      0.87016494
    H      0.22462903     -6.02696662      1.87250377
    H      0.82760715     -6.19292500      0.24095865
    C     -1.18560985     -5.45233810      0.35722863
    N     -2.04988116     -4.80481407     -0.02804955
    C      2.37557066      2.00749057     -5.15767446
    H      3.17677821      1.34344636     -4.90865253
    H      2.65776126      2.60784386     -5.99722403
    H      1.50365026      1.43803580     -5.40338805
    C      2.07120023      2.91874869     -3.95411005
    N      1.84458261      3.59722179     -3.05800165
    C      4.64612204      3.16567615     -0.73674762
    H      5.46189648      3.85645396     -0.68943728
    H      4.59398742      2.61216070      0.17747430
    H      3.73197009      3.70266738     -0.88119731
    C      4.86274740      2.19525329     -1.91273781
    N      5.02403483      1.47272936     -2.78831596
    C     -1.18185426      5.25568588     -4.19517402
    H     -1.88905422      5.93163493     -4.62860368
    H     -0.23066941      5.73882658     -4.11318899
    H     -1.51818798      4.96289258     -3.22252259
    C     -1.04894071      4.00886437     -5.08924901
    N     -0.94998054      3.08054908     -5.75492849
    C     -4.40403241      4.46616326     -0.38509439
    H     -4.19816776      5.33650850      0.20228886
    H     -3.66794665      3.71657990     -0.18211255
    H     -5.37435441      4.08966046     -0.13686074
    C     -4.36319846      4.83423967     -1.87990285
    N     -4.33279573      5.10828929     -2.99285570
    C     -3.77772326     -4.13314215      3.01298337
    H     -4.24400010     -3.35891826      3.58575161
    H     -4.31218580     -5.04981470      3.15067981
    H     -3.78858943     -3.86611662      1.97689535
    C     -2.32176490     -4.31244001      3.48163839
    N     -1.23773772     -4.44593542      3.83057335
    C      0.52430720     -2.44366442      1.40324273
    H     -0.07687952     -2.61113895      2.27239577
    H      1.37477470     -1.85023312      1.66676393
    H      0.85284519     -3.38314233      1.01037742
    C     -0.30732137     -1.70457656      0.33846902
    N     -0.92650664     -1.15429205     -0.45430341
    C      1.78289840     -5.00319711      5.10619976
    H      1.52723011     -5.63301825      4.27984679
    H      0.93664078     -4.90264967      5.75322166
    H      2.59643827     -5.43844556      5.64805836
    C      2.19795945     -3.61500374      4.58443017
    N      2.50699127     -2.58143068      4.19594900
    C      4.08663668     -3.31392762      0.95523528
    H      3.47920767     -2.97681818      0.14142486
    H      5.08567519     -3.47975824      0.60980604
    H      4.09430888     -2.57170290      1.72591205
    C      3.51196850     -4.62869220      1.51447635
    N      3.08410191     -5.60759420      1.93085674
    C     -1.26222797      0.50311633     -3.56025383
    H     -1.09090226     -0.38580743     -2.98984851
    H     -0.38466227      0.73910269     -4.12513255
    H     -2.08413905      0.34611231     -4.22712040
    C     -1.58891058      1.66882858     -2.60841697
    N     -1.83214062      2.53675434     -1.89973116
    C     -0.53567960     -3.44019853     -3.03475610
    H     -1.35670532     -3.20952615     -2.38853076
    H     -0.80346692     -4.25480450     -3.67476091
    H     -0.29785069     -2.58287785     -3.62917831
    C      0.68910362     -3.83367227     -2.18818390
    N      1.60101039     -4.12663135     -1.55787241
    C      4.20239275     -1.80042194     -2.60780695
    H      4.59463105     -1.30628974     -1.74358321
    H      4.88435938     -1.68599809     -3.42434096
    H      4.07188662     -2.84094129     -2.39523529
    C      2.84416951     -1.17871657     -2.98238946
    N      1.83291057     -0.71582866     -3.26128316
    C     -4.26435786     -2.14557025     -0.52026953
    H     -4.87256544     -3.02110301     -0.42847571
    H     -4.78264546     -1.30619566     -0.10586955
    H     -3.34509174     -2.29297895      0.00710089
    C     -3.96610238     -1.88137073     -2.00783207
    N     -3.74403762     -1.68466218     -3.11538999
    C      3.86593614      0.52672943      3.58048346
    H      4.81561308      0.10755062      3.83991173
    H      4.01200811      1.37341922      2.94277000
    H      3.27948524     -0.20786898      3.06926960
    C      3.13292643      0.96870654      4.86069946
    N      2.58716738      1.29777858      5.81387846
    C     -2.75169847      1.23009802      1.18381699
    H     -1.79397553      1.67315706      1.36092043
    H     -3.52031450      1.93727864      1.41624776
    H     -2.82823301      0.94532094      0.15525315
    C     -2.91371884     -0.01552338      2.07475848
    N     -3.03435036     -0.94294512      2.73810492
    C      0.74304197      3.80519553      3.95105329
    H      1.17540325      3.42743757      4.85397235
    H     -0.11942608      3.22448401      3.69842295
    H      0.45647411      4.82631294      4.09281786
    C      1.77451954      3.71502918      2.81108660
    N      2.54250147      3.64789623      1.96232958
    C      1.21710820      1.48132570     -0.41100147
    H      1.54417915      2.49937889     -0.37236884
    H      0.38641295      1.34824791      0.25016024
    H      0.91997515      1.23983449     -1.41014762
    C      2.36960223      0.55518786      0.01984213
    N      3.22768642     -0.13436386      0.34062477
