120
Energy:   -596.13828219
    C      4.67535888     -2.82961469      1.67132392
    H      5.60085742     -3.06840768      2.15229225
    H      4.70149597     -3.17158168      0.65777840
    H      3.87052904     -3.30862508      2.18871842
    C      4.46406790     -1.30433484      1.69317566
    N      4.30675215     -0.16869466      1.70944528
    C      1.93950473     -2.12300277     -4.09046760
    H      2.98579952     -2.32064760     -3.98509248
    H      1.58981154     -2.53554744     -5.01373390
    H      1.40832538     -2.56994048     -3.27622299
    C      1.70141991     -0.60152715     -4.08521925
    N      1.52415495      0.53128061     -4.08131161
    C      0.99058720      5.70507356      1.43234326
    H      0.29318203      6.04974388      2.16700547
    H      1.74990074      6.44474790      1.28665897
    H      1.44009393      4.79363522      1.76719092
    C      0.25453046      5.45621726      0.10272263
    N     -0.29349723      5.27093243     -0.88724037
    C     -1.40298213     -0.75050854     -2.54453257
    H     -0.75220316     -1.59535700     -2.63181372
    H     -0.92520748      0.11213977     -2.95982568
    H     -2.31217498     -0.94440022     -3.07431882
    C     -1.71869823     -0.49706748     -1.05870251
    N     -1.95376321     -0.30836909      0.04756551
    C      2.73819486     -4.79561978     -1.35841944
    H      2.94281427     -3.78219857     -1.63411588
    H      2.05232478     -5.22428846     -2.05893674
    H      3.64906024     -5.35705660     -1.36189100
    C      2.11986972     -4.82917704      0.05159756
    N      1.65949855     -4.85416195      1.10141931
    C      0.64671089      2.02247107     -0.73363713
    H      0.94248443      1.09166091     -1.17068477
    H      1.23350447      2.81443410     -1.15001068
    H     -0.38839977      2.19978759     -0.93858557
    C      0.86625994      1.96710379      0.78962670
    N      1.02972419      1.92588034      1.92376585
    C     -3.54722455     -3.71343515     -4.21448231
    H     -3.77957946     -2.98105208     -4.95914761
    H     -4.08018518     -4.61716925     -4.42452218
    H     -2.49537239     -3.90947963     -4.22300767
    C     -3.95962383     -3.18465934     -2.82814795
    N     -4.26667384     -2.79096171     -1.79595900
    C     -0.07699175     -3.61402327      5.00235671
    H     -0.35995499     -4.36893120      5.70588070
    H      0.27357439     -2.75030198      5.52770232
    H      0.70200447     -3.98836134      4.37153582
    C     -1.29546380     -3.23186549      4.14161209
    N     -2.20267162     -2.94733165      3.50074859
    C      0.09477856      3.57892030      4.93203314
    H     -0.52949222      4.43091982      5.10315589
    H      0.07372652      2.94281199      5.79216227
    H     -0.26379068      3.03929644      4.08048555
    C      1.53963524      4.04485414      4.67339282
    N      2.61539672      4.39176307      4.48082334
    C      4.57625724      3.10652168      2.13128017
    H      3.84892603      2.52520390      2.65849847
    H      4.83220753      3.96862349      2.71108100
    H      5.45261604      2.51559525      1.96484613
    C      3.99339077      3.55289569      0.77753835
    N      3.55942019      3.88524143     -0.23038397
    C      4.16759176      0.71913806     -1.58125496
    H      3.43167854      0.80650026     -0.80943908
    H      3.76524814      1.08889781     -2.50119867
    H      5.03275206      1.28985595     -1.31540192
    C      4.56064735     -0.76018562     -1.75069155
    N      4.85329510     -1.86160934     -1.87684480
    C      0.83890233     -1.53300710      1.91082211
    H      1.16821786     -2.45196046      2.34897296
    H     -0.22359626     -1.45211567      2.00804570
    H      1.30649280     -0.71127195      2.41183069
    C      1.22115777     -1.50950866      0.41920266
    N      1.50576432     -1.49201300     -0.69137583
    C     -1.72396920     -4.05112181      0.34460046
    H     -1.65588211     -3.04066341      0.68990925
    H     -1.20508328     -4.69561677      1.02304187
    H     -2.75243338     -4.34173635      0.29260323
    C     -1.08855081     -4.15956807     -1.05399987
    N     -0.61545294     -4.24031125     -2.09532138
    C     -5.06486740      0.86904503     -2.33839398
    H     -6.11605011      0.82842712     -2.14277886
    H     -4.74563537      1.89004401     -2.36186919
    H     -4.53801328      0.34828383     -1.56629838
    C     -4.76968113      0.20753480     -3.69738967
    N     -4.54990154     -0.28498962     -4.70922374
    C     -2.14517302      0.65394878      3.26433147
    H     -2.85925212      1.34660786      3.65830434
    H     -2.64967822     -0.23124898      2.93753105
    H     -1.63493219      1.09996478      2.43630784
    C     -1.12568610      0.28913030      4.35939032
    N     -0.36663175      0.01750635      5.17471142
    C     -4.82927589     -1.79481563      1.43966146
    H     -5.03543309     -2.08054483      2.44998725
    H     -3.80842227     -2.01603337      1.20767076
    H     -5.47117061     -2.33741119      0.77749808
    C     -5.07798163     -0.28425634      1.27246071
    N     -5.26315436      0.84042371      1.14797215
    C      2.91593161      0.64103866      4.93573860
    H      2.36732318      0.90240807      5.81642868
    H      2.44691617      1.07991964      4.07998918
    H      3.91860937      1.00520398      5.01892525
    C      2.93744288     -0.89092702      4.78011585
    N      2.95345899     -2.03154510      4.66424764
    C     -1.56709834      0.67338716     -6.30930694
    H     -0.67924636      1.24481257     -6.13583634
    H     -2.34743850      1.02265218     -5.66589240
    H     -1.86939262      0.78495958     -7.32963476
    C     -1.28675670     -0.81230233     -6.01650105
    N     -1.07802960     -1.91846569     -5.79849375
    C      0.12572268      3.84401481     -4.01738826
    H      0.15667597      4.80410408     -3.54603842
    H      0.11326448      3.96861764     -5.08003497
    H      0.98975771      3.27979808     -3.73454193
    C     -1.14446320      3.09491803     -3.57344928
    N     -2.09017433      2.53718142     -3.24291653
    C     -3.18931542      3.26635768     -0.02409932
    H     -4.25013789      3.35941804      0.08028286
    H     -2.94018349      2.24861657     -0.24097577
    H     -2.85311637      3.89386072     -0.82291671
    C     -2.50496190      3.69407220      1.28751059
    N     -1.99542959      4.01252509      2.26406378
