120
Energy:   -586.84733633
    C      5.62728337     -4.38954104      1.54988758
    H      6.17105804     -3.74834340      0.88801532
    H      6.20883622     -5.26330777      1.75779881
    H      5.42479548     -3.87021459      2.46323186
    C      4.29908182     -4.80225801      0.88871791
    N      3.31017539     -5.10954456      0.39644704
    C      0.64130455     -1.04371027     -5.06029784
    H      1.52520276     -0.99114584     -5.66101500
    H      0.72188346     -0.35415604     -4.24609817
    H     -0.21083708     -0.79311441     -5.65691787
    C      0.47962512     -2.47247961     -4.50886522
    N      0.35924743     -3.53626333     -4.09829858
    C      1.39469200      5.59985974     -0.13480914
    H      0.44409593      5.11844153     -0.23229651
    H      1.74558217      5.89547429     -1.10144621
    H      1.29457564      6.46416238      0.48797231
    C      2.40191473      4.62332666      0.50039597
    N      3.15183783      3.89625339      0.97333505
    C      0.53061971      2.61493290     -4.50748055
    H      1.46798118      2.19248171     -4.80377201
    H      0.41468267      3.57792520     -4.95925875
    H     -0.26549944      1.97410810     -4.82439848
    C      0.49419893      2.75926674     -2.97469183
    N      0.46708201      2.86672984     -1.83346095
    C      1.12003194     -4.04973400      3.10486466
    H      1.27113055     -4.80097120      2.35806344
    H      0.72915887     -3.16516558      2.64698253
    H      0.42684761     -4.40865438      3.83669165
    C      2.46279757     -3.72505367      3.78542557
    N      3.46254762     -3.48331441      4.29213410
    C     -2.07453912      0.52058081     -0.83856906
    H     -1.38134335      1.27484602     -0.52959688
    H     -1.78983864     -0.42021975     -0.41579367
    H     -3.05685217      0.77985125     -0.50280277
    C     -2.06818221      0.41589648     -2.37499373
    N     -2.06344920      0.33795423     -3.51893174
    C     -3.07202658     -3.05411846     -4.18023911
    H     -2.43678249     -3.85419175     -4.49843379
    H     -2.75538039     -2.14216741     -4.64173621
    H     -4.08167840     -3.26578636     -4.46431481
    C     -2.98889299     -2.91049500     -2.64920642
    N     -2.92699625     -2.80356080     -1.50928298
    C      1.35501428     -0.84433355      5.42778047
    H      0.81510473     -1.35216704      4.65609206
    H      0.66769149     -0.31913869      6.05758745
    H      1.89947143     -1.55751945      6.01073104
    C      2.33770191      0.15713539      4.79296950
    N      3.06935752      0.90277454      4.32032388
    C      1.36793255      3.96456843      4.05590710
    H      0.96918765      4.64613222      3.33384513
    H      2.21051525      3.45457178      3.63774816
    H      1.67473461      4.50615522      4.92622620
    C      0.28757035      2.93815806      4.44436464
    N     -0.51680842      2.17394888      4.73358893
    C      3.74842014      1.14336422     -1.32290765
    H      3.24227927      2.06107797     -1.10721557
    H      4.78975085      1.24968342     -1.10103901
    H      3.33458838      0.35866719     -0.72466612
    C      3.57375494      0.79889882     -2.81369121
    N      3.44370876      0.54242866     -3.92364734
    C      3.65669978     -2.99989922     -2.60013603
    H      4.11095572     -3.55619314     -3.39328721
    H      3.04535070     -2.22473891     -3.01278344
    H      3.05183738     -3.65350338     -2.00697317
    C      4.75334813     -2.37420071     -1.71839696
    N      5.56985267     -1.90833972     -1.06190215
    C      1.07168489      1.26846451      1.30385672
    H      1.16988984      1.16850285      0.24307228
    H      2.03867463      1.21213693      1.75845229
    H      0.62422692      2.21296693      1.53319410
    C      0.18260421      0.13402473      1.84624213
    N     -0.47935676     -0.71061726      2.25007272
    C      0.33537434     -3.19070186     -0.49458839
    H      1.16104661     -3.53321214      0.09350360
    H      0.13548400     -3.89623925     -1.27379307
    H     -0.52935052     -3.09225430      0.12787291
    C      0.67927417     -1.82398514     -1.11540906
    N      0.93532323     -0.80640241     -1.57763826
    C     -5.70499306     -0.32773301     -1.27008683
    H     -5.47763301      0.70333143     -1.09655378
    H     -4.97706427     -0.94071224     -0.78092915
    H     -6.67694050     -0.54900171     -0.88116855
    C     -5.68101709     -0.61100215     -2.78362036
    N     -5.66316590     -0.82190891     -3.91051486
    C     -2.65829445     -0.46192527      5.04611953
    H     -2.41155069      0.05395249      5.95049104
    H     -3.72195387     -0.53653241      4.95689221
    H     -2.26719060      0.07818657      4.20933039
    C     -2.04544269     -1.87438491      5.07727212
    N     -1.58914669     -2.92602531      5.10046664
    C     -2.89342941     -3.30384583      1.91601550
    H     -3.32813156     -3.88675230      2.70097045
    H     -1.85173859     -3.15986952      2.11362661
    H     -3.01222314     -3.81571165      0.98393153
    C     -3.59606642     -1.93540795      1.84335889
    N     -4.11921161     -0.91654374      1.78926275
    C      5.20241868     -0.58017635      2.22756846
    H      5.42567241     -1.00685249      3.18308164
    H      5.09651426      0.47998052      2.32631441
    H      5.99773041     -0.79717175      1.54544579
    C      3.88886671     -1.17960495      1.69196920
    N      2.91086756     -1.62590678      1.29319121
    C     -4.49807173      2.29582196     -4.79365742
    H     -4.92558495      2.20053049     -3.81741351
    H     -4.13186689      1.34389793     -5.11712881
    H     -5.24452009      2.64200332     -5.47766941
    C     -3.33550380      3.30478889     -4.74869584
    N     -2.46991913      4.05601063     -4.71521990
    C     -2.41431212      5.16535318     -1.54630057
    H     -2.81520594      5.86068272     -2.25390297
    H     -1.48958202      4.77376655     -1.91566928
    H     -2.24409182      5.66293414     -0.61445437
    C     -3.41323654      4.01204378     -1.33742879
    N     -4.15698118      3.15335251     -1.18191425
    C     -3.07209969      2.28349958      2.25542745
    H     -3.42693692      2.44189123      3.25237418
    H     -2.59261876      1.32885826      2.19495357
    H     -3.89696687      2.31210075      1.57449045
    C     -2.06429951      3.38834152      1.88764616
    N     -1.31394646      4.21094657      1.61381628
