120
Energy:   -586.79082703
    C      4.42596491     -3.45912828      0.25925836
    H      5.14915719     -4.09984205     -0.20050132
    H      4.42213360     -2.51140242     -0.23743079
    H      3.45605028     -3.90478683      0.18473883
    C      4.78657551     -3.25958067      1.74308474
    N      5.05506650     -3.11100840      2.84786093
    C      4.46613966      0.01162109     -2.41526259
    H      5.30000166      0.67318433     -2.30613690
    H      4.81749439     -0.99666106     -2.48466042
    H      3.82163443      0.10711120     -1.56650248
    C      3.68791792      0.37320339     -3.69402339
    N      3.10849646      0.64241784     -4.64611892
    C     -2.68846732      4.55812444     -2.50304892
    H     -1.94195367      3.83880978     -2.23808862
    H     -3.03469601      5.05440948     -1.62059442
    H     -2.26842476      5.27707209     -3.17504417
    C     -3.86912786      3.84437191     -3.18729890
    N     -4.74818329      3.31295071     -3.69675412
    C     -5.78590958      1.77466196     -0.50502521
    H     -6.69987237      1.64353638      0.03569494
    H     -5.20212555      0.88023979     -0.44096043
    H     -6.00545724      1.98455750     -1.53100853
    C     -4.99471307      2.94859347      0.10118668
    N     -4.40563130      3.82263885      0.55253899
    C      0.43073061     -4.77144145      0.42045636
    H      0.96975592     -3.84716826      0.41203282
    H      0.57587626     -5.27748030     -0.51107814
    H      0.78895485     -5.38597068      1.21978627
    C     -1.06954194     -4.48892308      0.62285609
    N     -2.18656304     -4.27857530      0.77355189
    C      2.15745207     -0.72041180      1.19878672
    H      1.95424732     -1.74683042      0.97501715
    H      2.91066079     -0.66292604      1.95659350
    H      2.50158731     -0.22416353      0.31549307
    C      0.87055772     -0.04009811      1.70145582
    N     -0.08759362      0.46642635      2.07571582
    C     -3.44396635     -4.48780534     -2.66030897
    H     -3.93863661     -5.25119900     -3.22371969
    H     -3.71265132     -3.52748130     -3.04823322
    H     -3.73988815     -4.55347918     -1.63414313
    C     -1.91939659     -4.67671697     -2.76800966
    N     -0.78428511     -4.81737027     -2.84819773
    C      2.74134233     -2.15271719      5.21105044
    H      2.10980104     -1.46190369      5.72954104
    H      3.57760234     -1.62952335      4.79651877
    H      3.09031560     -2.89877107      5.89407339
    C      1.94443836     -2.82622153      4.07838281
    N      1.35110713     -3.32767612      3.23506027
    C     -1.87360710     -2.19786937      3.60489113
    H     -1.65282838     -1.78231847      2.64391538
    H     -2.92989130     -2.16675273      3.77280339
    H     -1.53653028     -3.21276012      3.64059938
    C     -1.15624112     -1.38005126      4.69491846
    N     -0.62212955     -0.77114850      5.50649336
    C      3.22748066      2.82534306      0.91671616
    H      2.27088349      2.39309986      0.70938104
    H      3.09530510      3.75281732      1.43364963
    H      3.79707455      2.15531616      1.52624535
    C      3.97471141      3.07691887     -0.40614280
    N      4.53105867      3.26422849     -1.39107142
    C      0.94616540     -2.10949420     -4.23338025
    H      1.77780065     -2.06697302     -4.90529909
    H      0.36927015     -1.21276880     -4.32268043
    H      0.33420175     -2.95295940     -4.47620949
    C      1.46030133     -2.24734803     -2.78829874
    N      1.84309890     -2.34998647     -1.71236987
    C      1.06722160      2.08254792      5.19591527
    H      1.16039640      3.14521758      5.27929293
    H      0.95180668      1.65704472      6.17086425
    H      0.21108162      1.84527592      4.59957189
    C      2.33143457      1.50699780      4.53100353
    N      3.27269860      1.07847458      4.03594653
    C     -1.64727946     -1.17814273     -0.60742206
    H     -2.03167591     -1.93424008     -1.25969221
    H     -1.96499136     -1.37653829      0.39487403
    H     -0.57811923     -1.18045679     -0.64973213
    C     -2.17556072      0.19894652     -1.05030366
    N     -2.56889014      1.22425206     -1.38004914
    C     -4.69626836     -0.02100135     -4.05081857
    H     -4.74437253      0.53872563     -3.14016393
    H     -5.51066350     -0.71407881     -4.08691983
    H     -4.75949973      0.64733387     -4.88402257
    C     -3.36390585     -0.79098085     -4.11033087
    N     -2.37190141     -1.36426559     -4.15464048
    C     -0.69505398      3.52897597      0.40829650
    H     -0.73691380      2.46279446      0.32826568
    H     -0.12275884      3.92544201     -0.40422553
    H     -1.68710606      3.92843309      0.37415299
    C     -0.03066974      3.91794665      1.74204887
    N      0.46399453      4.20755300      2.73508813
    C     -5.19511006     -2.75495036      1.24614302
    H     -5.90115193     -2.18577814      1.81398811
    H     -4.22565154     -2.66579756      1.69010365
    H     -5.49036359     -3.78337372      1.23778601
    C     -5.14928869     -2.22228445     -0.19807561
    N     -5.11517259     -1.82569048     -1.27336202
    C      6.40544952      0.15061175      3.28915490
    H      7.47277077      0.07514019      3.28371633
    H      5.99471959     -0.64363220      3.87684238
    H      6.11654749      1.09134014      3.70923204
    C      5.87625087      0.04840610      1.84655212
    N      5.48223842     -0.02769066      0.77246877
    C     -0.17597360      1.67521767     -3.83547721
    H     -0.49846269      2.69436624     -3.88277596
    H     -1.02814439      1.02930425     -3.87420586
    H      0.46803048      1.46608513     -4.66398273
    C      0.58777540      1.43903217     -2.51923108
    N      1.15642125      1.26318132     -1.53922601
    C      3.05542575      4.40475858     -4.08222786
    H      3.27918680      3.35977182     -4.02899394
    H      3.85198020      4.96322536     -3.63667769
    H      2.94616637      4.69439062     -5.10647137
    C      1.74418364      4.68813054     -3.32595776
    N      0.76790429      4.89911385     -2.76288030
    C     -2.79327670      2.24452559      3.34318021
    H     -3.21430689      2.30527446      4.32498637
    H     -3.01270886      3.14279573      2.80479431
    H     -1.73276881      2.12285062      3.41678264
    C     -3.39782934      1.03937400      2.59905271
    N     -3.84794626      0.14208386      2.04501597
