120
Energy:   -586.79011063
    C      5.73075745     -4.03494596      2.08794033
    H      6.23574512     -3.45120987      1.34690065
    H      6.34322224     -4.86763306      2.36437869
    H      5.54084905     -3.43014339      2.94994251
    C      4.39578501     -4.54710709      1.51597918
    N      3.40183735     -4.92843434      1.09012811
    C      0.59841426     -1.76032152     -4.86309210
    H      1.47049345     -1.78062745     -5.48274179
    H      0.67778756     -0.95604341     -4.16185343
    H     -0.26915410     -1.61754264     -5.47287766
    C      0.47768360     -3.09415267     -4.10288253
    N      0.38779414     -4.08725058     -3.53687195
    C      1.33480388      5.66472686     -1.04414310
    H      1.15510988      5.24133330     -2.01024255
    H      1.76895726      6.63630935     -1.15566619
    H      0.40964672      5.74632976     -0.51280113
    C      2.30010904      4.75829580     -0.25790606
    N      3.01882261      4.08341668      0.32748316
    C      0.38621008      1.93862091     -4.81669511
    H      1.32935760      1.49870599     -5.06538731
    H      0.23435657      2.81599915     -5.41003061
    H     -0.39729915      1.23639813     -5.01136291
    C      0.37500580      2.31967729     -3.32462591
    N      0.36666371      2.60339109     -2.21371257
    C      1.22630788     -3.52155735      3.64632095
    H      1.37604553     -4.37189438      3.01433539
    H      0.81592627     -2.71778788      3.07148127
    H      0.54986871     -3.77785387      4.43476324
    C      2.57500946     -3.08565871      4.24848074
    N      3.57917910     -2.76111235      4.69681607
    C     -2.10276800      0.34225834     -0.87532421
    H     -3.07948293      0.65456615     -0.56972323
    H     -1.40388888      1.13296075     -0.69852834
    H     -1.81296312     -0.52187258     -0.31479771
    C     -2.11999454     -0.00154987     -2.37635691
    N     -2.13282049     -0.25753071     -3.49394398
    C     -3.05317190     -3.73515955     -3.62536314
    H     -2.76628577     -2.89824465     -4.22716874
    H     -4.05844146     -4.01595026     -3.86092373
    H     -2.39764893     -4.55756834     -3.82242275
    C     -2.96269969     -3.35190807     -2.13656057
    N     -2.89533902     -3.06655992     -1.02807939
    C      1.44045452     -0.00839688      5.46319810
    H      0.90019871     -0.62789171      4.77817985
    H      0.75210308      0.59358068      6.01880084
    H      1.99958269     -0.62422878      6.13627006
    C      2.40400564      0.90315409      4.68073784
    N      3.12141325      1.58184522      4.09816061
    C      1.35747488      4.54326910      3.41380361
    H      0.94078461      5.10667883      2.60520058
    H      2.20400969      3.99010573      3.06410631
    H      1.66403888      5.21010494      4.19242263
    C      0.29759522      3.56877514      3.96026187
    N     -0.49153337      2.84322010      4.36712489
    C      3.70598732      1.01653123     -1.52113561
    H      4.74781712      1.17828610     -1.33858094
    H      3.32423196      0.31376559     -0.81030343
    H      3.17905091      1.94283424     -1.42521975
    C      3.51436772      0.46199744     -2.94499452
    N      3.37169823      0.04912182     -4.00512220
    C      3.68056585     -3.26569949     -2.18491693
    H      4.13309082     -3.92594343     -2.89498684
    H      3.05283586     -2.56688880     -2.69728180
    H      3.09275785     -3.83340306     -1.49419737
    C      4.77873619     -2.50413669     -1.41964312
    N      5.59637392     -1.93711856     -0.84986198
    C      1.06688353      1.47163415      1.09076036
    H      0.60891296      2.43368258      1.18887236
    H      1.15415769      1.22223234      0.05389921
    H      2.03978170      1.49270988      1.53564692
    C      0.20016160      0.41562057      1.80155457
    N     -0.44515227     -0.37062955      2.33077317
    C      0.38538173     -3.20617919     -0.02543904
    H      1.22507619     -3.44539487      0.59309896
    H      0.18683419     -4.02217972     -0.68847833
    H     -0.47207679     -3.02978857      0.58982539
    C      0.69670930     -1.94132502     -0.84691276
    N      0.92850683     -0.99958360     -1.45853729
    C     -5.70814678     -0.62622796     -1.14471494
    H     -6.66594543     -0.78784201     -0.69593566
    H     -5.49568373      0.42228729     -1.16406189
    H     -4.95715852     -1.13185386     -0.57440083
    C     -5.71628242     -1.17498036     -2.58360500
    N     -5.72233977     -1.58355147     -3.65492405
    C     -2.59067941      0.26106593      5.09132997
    H     -2.33515589      0.91393386      5.89964388
    H     -3.65426842      0.15574925      5.04047813
    H     -2.22867606      0.67259842      4.17236660
    C     -1.94868223     -1.11930016      5.32377152
    N     -1.47068616     -2.14704546      5.49683482
    C     -2.81848972     -3.01963425      2.42981892
    H     -3.22889492     -3.47747389      3.30551899
    H     -1.77560550     -2.83337753      2.58015200
    H     -2.94700992     -3.67293767      1.59221741
    C     -3.54381497     -1.68848692      2.15861775
    N     -4.08385259     -0.69738723      1.95669615
    C      5.25294466     -0.19677537      2.24236417
    H      5.48567409     -0.49610312      3.24293406
    H      5.14517720      0.86710192      2.20428039
    H      6.04279702     -0.49895102      1.58683217
    C      3.93629352     -0.86224933      1.80057895
    N      2.95598689     -1.35772495      1.47164977
    C     -4.65336867      1.40517063     -5.01698498
    H     -5.07183880      1.47271488     -4.03452852
    H     -4.26931298      0.41889807     -5.17404157
    H     -5.41182938      1.61234069     -5.74273770
    C     -3.51221910      2.42928441     -5.16040266
    N     -2.66258137      3.19178366     -5.26718365
    C     -2.46175439      4.81004538     -2.18573186
    H     -2.76285169      5.70539429     -1.68314761
    H     -2.42956131      4.98673067     -3.24055175
    H     -1.49103675      4.51798994     -1.84322642
    C     -3.47184290      3.68745703     -1.88387660
    N     -4.22389971      2.85163897     -1.65913164
    C     -3.08119445      2.55217292      1.91631382
    H     -3.44718116      2.84709049      2.87755132
    H     -2.58344422      1.60855275      1.99831852
    H     -3.90078303      2.46498584      1.23398540
    C     -2.09123878      3.61130587      1.39686683
    N     -1.35417179      4.39987849      1.01011494
