120
Energy:   -586.76382880
    C      1.87311087     -7.41271797     -1.22885641
    H      1.98831276     -8.47417748     -1.15862517
    H      1.23686592     -7.17697528     -2.05621174
    H      1.43624195     -7.04083566     -0.32566862
    C      3.25179050     -6.75953439     -1.43907934
    N      4.27828016     -6.27320952     -1.59559986
    C      0.91048449     -1.67117977     -4.45075439
    H      0.21542606     -1.39534590     -5.21607107
    H      1.00941281     -2.73630466     -4.42582922
    H      1.86274924     -1.22927698     -4.65766709
    C      0.39791594     -1.17119955     -3.08734203
    N      0.01628535     -0.79894155     -2.07221956
    C     -0.07009329      6.01566626     -1.46935102
    H     -0.43292252      6.99281091     -1.22760018
    H      0.92974387      6.08888654     -1.84333437
    H     -0.07849860      5.40467368     -0.59099090
    C     -0.97481276      5.38329742     -2.54321895
    N     -1.64841752      4.91247007     -3.34276244
    C      0.80025979      2.33269120     -3.65843287
    H      0.32321794      3.01386106     -4.33173732
    H      0.06070648      1.85749379     -3.04839402
    H      1.33119308      1.59114593     -4.21800374
    C      1.78710211      3.10351707     -2.76201238
    N      2.52185108      3.67743198     -2.09458658
    C      1.06470679     -3.29713261      4.07501568
    H      1.10406649     -4.28978186      3.67752546
    H      0.18613318     -2.80350036      3.71538435
    H      1.03657017     -3.34173131      5.14371507
    C      2.31304541     -2.51473100      3.62657572
    N      3.24249026     -1.93219744      3.29269178
    C     -2.31060601      0.63272265     -0.28197178
    H     -3.15408560      0.90415342      0.31783460
    H     -1.81534635     -0.20734075      0.15838087
    H     -2.64105656      0.37598564     -1.26674974
    C     -1.33382610      1.82064004     -0.36167926
    N     -0.60656906      2.70509854     -0.42102511
    C     -2.81705203     -2.74190204     -2.87640229
    H     -1.98469215     -3.35985831     -3.14136883
    H     -2.63417874     -1.73884488     -3.20095242
    H     -3.70210643     -3.11387937     -3.34885406
    C     -3.00441249     -2.76079020     -1.34795886
    N     -3.14391086     -2.77485329     -0.20996326
    C      2.83816383      1.06243680      4.69980877
    H      1.91452441      0.64348268      4.35882807
    H      2.63711246      1.85338165      5.39182299
    H      3.41688030      0.30362957      5.18374878
    C      3.62396011      1.61916438      3.49806895
    N      4.20902116      2.03367337      2.60331902
    C      1.94368522      4.45997373      1.32923630
    H      1.64501084      3.99241818      0.41431247
    H      2.99502161      4.32271988      1.47329276
    H      1.72350617      5.50608138      1.28363965
    C      1.17730645      3.82483300      2.50433622
    N      0.60670262      3.35194186      3.37925153
    C      4.93273039      1.20437196     -1.11479516
    H      5.91850096      1.52711966     -1.37745558
    H      4.99497161      0.43412755     -0.37469472
    H      4.37913832      2.03184313     -0.72271562
    C      4.22113433      0.65749183     -2.36625558
    N      3.69131872      0.25031471     -3.29802474
    C      3.88670311     -3.34882818     -3.12294409
    H      3.97082676     -2.57115152     -3.85304162
    H      3.05786176     -3.97970557     -3.36771913
    H      4.78592771     -3.92867175     -3.11424746
    C      3.66432825     -2.72556698     -1.73237050
    N      3.49876007     -2.26152069     -0.69702525
    C      1.96827486      0.42563724      0.62083905
    H      1.99174614      1.49318801      0.55239471
    H      1.78601693      0.01003300     -0.34815747
    H      2.90794558      0.07115854      0.98997706
    C      0.84438353     -0.00249484      1.58269725
    N      0.00759536     -0.32125863      2.29884441
    C      0.29854759     -3.31488985      0.35728107
    H      1.26344020     -3.00043968      0.69640276
    H     -0.10213573     -4.03503919      1.03973026
    H     -0.35490816     -2.46910109      0.30692179
    C      0.42699601     -3.94829099     -1.04054009
    N      0.52263169     -4.41988693     -2.08128148
    C     -5.97839921     -0.19841452      0.27321786
    H     -5.65139943      0.74209068      0.66490816
    H     -5.52511746     -0.99296597      0.82830591
    H     -7.04297284     -0.26818061      0.35516162
    C     -5.56923039     -0.30806800     -1.20737560
    N     -5.26458560     -0.38970999     -2.30974473
    C     -1.26497782      1.25835010      5.18887183
    H     -0.59691575      1.93850453      5.67465285
    H     -2.27356300      1.49982662      5.45220456
    H     -1.14473699      1.33647140      4.12852363
    C     -0.94793545     -0.18054835      5.63681757
    N     -0.71188300     -1.25187365      5.97033354
    C     -2.73470869     -2.27163538      3.05005298
    H     -1.88956576     -2.33347733      2.39674663
    H     -3.47766631     -2.97637473      2.73980224
    H     -2.42868858     -2.49341622      4.05108447
    C     -3.32222040     -0.84913020      2.99611777
    N     -3.75964957      0.20998957      2.95596055
    C      4.97824417     -4.39495584      1.40419875
    H      5.36493180     -4.62817405      0.43415642
    H      5.62612269     -4.79999477      2.15326215
    H      4.92035794     -3.33272621      1.51916172
    C      3.57255269     -5.00516036      1.55678275
    N      2.52595148     -5.45948537      1.67038847
    C     -3.46768934      2.16818841     -3.78558119
    H     -3.07053507      2.42649002     -2.82618088
    H     -4.46222437      1.79076044     -3.67005074
    H     -3.48622765      3.03715347     -4.40964461
    C     -2.58122470      1.08897932     -4.43449427
    N     -1.92121149      0.28545909     -4.91763956
    C     -4.46123856      5.58403844     -1.47306839
    H     -5.36917531      6.11383378     -1.27339879
    H     -4.29518461      5.54639452     -2.52943391
    H     -3.64341021      6.08740307     -1.00117864
    C     -4.57054359      4.15123697     -0.91923417
    N     -4.65192615      3.08445114     -0.50687942
    C     -2.70960490      3.42522559      2.50031959
    H     -2.81182870      3.61764097      3.54790099
    H     -1.92899627      2.71041642      2.34348492
    H     -3.63044557      3.03753653      2.11737214
    C     -2.36064913      4.73506689      1.76946692
    N     -2.10083569      5.71030328      1.22531388
