120
Energy:   -586.68216585
    C      5.54346181     -4.75533420      1.29249556
    H      6.10360803     -4.03154280      0.73818302
    H      6.05050393     -5.69712676      1.26361385
    H      5.44931477     -4.43194655      2.30810172
    C      4.14300723     -4.90701225      0.67014458
    N      3.10030514     -5.01994345      0.20677598
    C      0.71063768     -1.04243020     -5.28737320
    H      1.11247713     -1.21774736     -6.26343116
    H      1.43054646     -0.51831336     -4.69413465
    H     -0.18010688     -0.45516608     -5.36857702
    C      0.37816451     -2.38966476     -4.61952543
    N      0.13062312     -3.39274212     -4.12228241
    C      0.93204699      6.08164155     -0.15478034
    H      0.10795786      5.66836157     -0.69789814
    H      1.35983226      6.88721860     -0.71419474
    H      0.58895997      6.44666484      0.79070811
    C      1.99621902      4.99166444      0.07124569
    N      2.78854347      4.18012693      0.23953234
    C      0.57321647      2.37557340     -3.68917307
    H      1.13321099      3.18789496     -4.10322621
    H     -0.22013745      2.11222806     -4.35710861
    H      1.21729510      1.53247776     -3.55042307
    C     -0.01791324      2.79888624     -2.33161206
    N     -0.45803618      3.11406190     -1.32084618
    C      1.11089436     -3.95541398      2.99615127
    H      1.16995755     -4.68318523      2.21399993
    H      0.75015800     -3.03074423      2.59645859
    H      0.44093675     -4.30133381      3.75535833
    C      2.50931883     -3.74093424      3.60443364
    N      3.55050941     -3.58124434      4.05732751
    C     -2.32837631      0.22147373     -0.80198366
    H     -1.61653325      0.92702130     -0.42730746
    H     -2.15152417     -0.73482505     -0.35576055
    H     -3.31753878      0.55030730     -0.56047759
    C     -2.18377828      0.10909328     -2.33105595
    N     -2.07611848      0.02542093     -3.46951976
    C     -3.25266504     -3.32948557     -3.96407856
    H     -2.89030683     -2.42907988     -4.41448540
    H     -4.26146037     -3.50319404     -4.27561742
    H     -2.63908422     -4.15195535     -4.26732948
    C     -3.20537646     -3.19164441     -2.43098900
    N     -3.17016797     -3.08901540     -1.28953414
    C      1.78843039     -0.62619523      5.10026514
    H      1.21384299     -1.10412257      4.33454002
    H      1.13179893     -0.11102644      5.76984361
    H      2.34376922     -1.36315553      5.64191761
    C      2.76119414      0.38087861      4.45906863
    N      3.48546096      1.13069087      3.98166868
    C      1.70071991      4.17766798      3.73737197
    H      2.16016316      4.64934799      4.58077582
    H      1.20661383      4.91605308      3.14109543
    H      2.44972767      3.68819238      3.15060107
    C      0.67259537      3.14055589      4.22620575
    N     -0.09289008      2.36837881      4.59016472
    C      4.13893228      1.08246077     -1.26087431
    H      5.11276867      0.75954288     -0.95711963
    H      3.39710319      0.56422519     -0.68989219
    H      4.04475178      2.13546087     -1.09588976
    C      3.94056436      0.77755941     -2.75729849
    N      3.79287043      0.55054650     -3.87145432
    C      3.56059081     -3.00216658     -2.79625790
    H      3.95923165     -3.57278361     -3.60889672
    H      3.04027333     -2.14976316     -3.18041573
    H      2.88336301     -3.60923303     -2.23258075
    C      4.71041802     -2.53400560     -1.88503746
    N      5.56651664     -2.18543848     -1.20659243
    C      1.13568123      1.43369366      1.15357119
    H      0.66117085      2.37048982      1.35888320
    H      1.25945788      1.32061630      0.09678741
    H      2.09352616      1.40712681      1.62972913
    C      0.26189339      0.28638868      1.69374348
    N     -0.38868137     -0.56783202      2.09592631
    C      0.28532735     -2.87525827     -0.59331198
    H      1.07631545     -3.23821277      0.02918464
    H      0.06091848     -3.60260016     -1.34531832
    H     -0.58533181     -2.69848053      0.00301122
    C      0.72297591     -1.56047198     -1.26517562
    N      1.04882516     -0.58155383     -1.76540863
    C     -5.98690163     -0.58028689     -0.85466565
    H     -6.99791348     -0.77556574     -0.56376809
    H     -5.73760905      0.43338950     -0.61969228
    H     -5.33023930     -1.24045504     -0.32753030
    C     -5.83569792     -0.80801933     -2.37021023
    N     -5.72311988     -0.97757648     -3.49860206
    C     -2.29411821     -0.12635114      5.08077004
    H     -1.95173696      0.44798077      5.91612513
    H     -3.36063349     -0.20538501      5.11538091
    H     -2.00157502      0.35667246      4.17192144
    C     -1.67294894     -1.53440546      5.13673207
    N     -1.21046018     -2.58276591      5.17839835
    C     -2.79937360     -3.18294414      2.14274085
    H     -3.02555962     -3.68534999      3.05998042
    H     -1.74325972     -3.02584502      2.07315333
    H     -3.12600665     -3.78159440      1.31822414
    C     -3.52374321     -1.82434930      2.10944321
    N     -4.06306930     -0.81281368      2.08465161
    C      5.43170880     -1.04174942      2.14657571
    H      5.58512733     -1.64265792      3.01851144
    H      5.53462817     -0.00807855      2.40315167
    H      6.15780686     -1.29890322      1.40390981
    C      4.01773294     -1.29449494      1.59124523
    N      2.96496363     -1.48267548      1.17777645
    C     -4.51895137      1.96296464     -4.74092325
    H     -4.97745195      1.86671082     -3.77893957
    H     -4.13987782      1.01198602     -5.05211773
    H     -5.24391288      2.30691836     -5.44875496
    C     -3.36123111      2.97516205     -4.65882452
    N     -2.49925575      3.72878903     -4.59769828
    C     -3.06369198      5.18453978     -1.43837139
    H     -3.73319823      5.98654045     -1.66957798
    H     -2.34378090      5.08333071     -2.22347256
    H     -2.56033429      5.39428976     -0.51775471
    C     -3.86069749      3.87403821     -1.30064750
    N     -4.45410432      2.89831023     -1.19810581
    C     -2.90372999      2.41514817      2.15189452
    H     -3.31235222      2.42064891      3.14078167
    H     -2.32911436      1.52401625      2.00836800
    H     -3.69932704      2.44552482      1.43705069
    C     -1.99756979      3.64607758      1.96404756
    N     -1.32289232      4.56256047      1.82418696
