120
Energy:   -586.65158682
    C      4.82574318     -2.89857167      0.97608048
    H      5.54436842     -3.30809321      1.65488094
    H      5.04455866     -3.22972605     -0.01757724
    H      3.84573363     -3.22639419      1.25359219
    C      4.88701061     -1.36072991      1.02983025
    N      4.93262700     -0.21573682      1.06984939
    C      1.76185764     -1.60774820     -4.78609413
    H      2.75875816     -1.78588140     -5.13157652
    H      1.06328242     -2.00829292     -5.49069025
    H      1.62311027     -2.08225683     -3.83715271
    C      1.53218427     -0.09194418     -4.64053206
    N      1.36118202      1.03664081     -4.53215449
    C      1.64750553      6.20259858      0.60079997
    H      1.22201297      6.89007466      1.30168006
    H      2.60148401      6.56540982      0.27956464
    H      1.76781673      5.24691692      1.06673655
    C      0.71372101      6.06643687     -0.61620720
    N      0.01847598      5.96505829     -1.52232435
    C     -2.07278493     -2.54843998     -0.28879528
    H     -1.44625230     -3.31732503     -0.69025864
    H     -1.74390976     -1.59605781     -0.64894582
    H     -3.08407527     -2.71595731     -0.59559960
    C     -1.99235570     -2.57143900      1.24893103
    N     -1.93247249     -2.58856281      2.39383816
    C      1.47430318     -4.37828312     -1.83313531
    H      0.72174792     -3.74972171     -2.26147083
    H      1.33542610     -5.38331935     -2.17300945
    H      2.44135482     -4.03117611     -2.13184409
    C      1.36546774     -4.33601536     -0.29756757
    N      1.28443480     -4.30454510      0.84573241
    C      0.61932635      2.60153400     -1.35268283
    H      0.65339707      1.64156024     -1.82405291
    H      1.23100434      3.28893780     -1.89878276
    H     -0.39010652      2.95612312     -1.33815968
    C      1.14276061      2.48348748      0.09081348
    N      1.53248122      2.39559649      1.16556209
    C     -4.05732994     -4.74271644     -2.81886897
    H     -4.22659872     -3.71728687     -3.07331437
    H     -4.65264179     -5.36960207     -3.44935871
    H     -3.02266240     -4.97821014     -2.95636398
    C     -4.44605390     -4.97738733     -1.34733125
    N     -4.73547656     -5.15211048     -0.25170453
    C      0.72616537     -3.29020555      4.39713785
    H      0.10582154     -2.42556181      4.50878427
    H      0.69120579     -3.87249013      5.29414487
    H      0.37346114     -3.87860225      3.57598735
    C      2.17694543     -2.84973949      4.12727332
    N      3.25711713     -2.52179249      3.92634691
    C      0.77182842      4.03715657      4.24632551
    H      0.14146667      4.90118679      4.21476589
    H      0.77312795      3.63259552      5.23689493
    H      0.40396993      3.30207063      3.56132340
    C      2.20665157      4.43383936      3.85195858
    N      3.27494263      4.72918774      3.55833447
    C      5.06465785      3.31804473      1.04962670
    H      4.34100966      2.91580700      1.72744547
    H      5.57486666      4.13480254      1.51598788
    H      5.77128377      2.55773411      0.78980624
    C      4.35483667      3.81572550     -0.22319211
    N      3.82634253      4.18627146     -1.17086357
    C      4.03093097      0.77313996     -2.03232511
    H      3.39114716      0.96984529     -1.19752941
    H      3.62247689      1.22904038     -2.90994641
    H      5.00280740      1.17726245     -1.83986650
    C      4.14083460     -0.74776150     -2.24768516
    N      4.22266284     -1.88014177     -2.40803051
    C      1.18453011     -0.90913910      1.36646477
    H      0.83069974     -1.83455264      1.77058607
    H      0.60060888     -0.10251139      1.75798338
    H      2.21048914     -0.77087773      1.63700302
    C      1.05757711     -0.93716937     -0.16803751
    N      0.96305483     -0.95803919     -1.31054421
    C     -1.82927212     -6.14623563      1.65536043
    H     -2.80948371     -5.74601996      1.80999819
    H     -1.10849664     -5.52213603      2.14103675
    H     -1.77876310     -7.13391859      2.06380907
    C     -1.52857274     -6.19895887      0.14592340
    N     -1.30468838     -6.23821372     -0.97792108
    C     -5.01485459      1.37449503     -1.37538453
    H     -4.66254768      1.59892713     -0.39029050
    H     -6.01918175      1.72724733     -1.48397486
    H     -4.38786771      1.85569269     -2.09665796
    C     -4.97882518     -0.14878669     -1.59880050
    N     -4.95199964     -1.28293917     -1.76514384
    C     -2.01570276      1.08487473      2.89890335
    H     -3.01300136      1.30012186      3.22133841
    H     -1.35726295      1.85814764      3.23566011
    H     -1.70314035      0.14695720      3.30818876
    C     -1.97785557      1.01204480      1.36109211
    N     -1.94967662      0.95781961      0.21612175
    C     -5.63944832     -2.48899774      1.65096582
    H     -4.82184186     -3.03724851      2.07029975
    H     -5.74116396     -2.73690985      0.61506399
    H     -6.54120318     -2.74189666      2.16843989
    C     -5.37194258     -0.97913024      1.79358713
    N     -5.17277239      0.14503473      1.89977518
    C      3.44504167      0.99060758      3.96764192
    H      3.79416412      1.83792673      4.51996788
    H      3.50064567      1.20029083      2.91986322
    H      4.05497398      0.14117849      4.19425149
    C      1.98468897      0.69185665      4.35457585
    N      0.89739000      0.46942301      4.64266574
    C     -1.87096428     -0.04758023     -3.37774467
    H     -1.29689218      0.52023227     -4.07983467
    H     -1.59703573      0.23399981     -2.38246837
    H     -2.91237237      0.14582372     -3.52928082
    C     -1.59260166     -1.54843032     -3.58161538
    N     -1.38534803     -2.66588143     -3.73340639
    C     -0.19440232      4.31068251     -4.60628318
    H     -0.04982254      5.29118715     -4.20303695
    H     -0.29199027      4.37331078     -5.66998115
    H      0.64668209      3.69649279     -4.36083032
    C     -1.47257049      3.69332388     -4.00899394
    N     -2.42422480      3.23367231     -3.56428496
    C     -2.94288993      4.39665477     -0.39869209
    H     -3.96127533      4.55178071     -0.10933537
    H     -2.84176657      3.42833546     -0.84257370
    H     -2.65530338      5.14543863     -1.10686988
    C     -2.03662633      4.48935644      0.84295709
    N     -1.36187189      4.55837705      1.76742135
