120
Energy:   -586.60551895
    C      5.56919441     -4.62492579      1.52043285
    H      6.15092036     -3.89033715      1.00383374
    H      6.08797249     -5.56071870      1.51268597
    H      5.41482016     -4.31106007      2.53164795
    C      4.20747235     -4.78707433      0.81970401
    N      3.19360839     -4.90780129      0.29797955
    C      1.25749729     -1.04828357     -5.40807834
    H      1.99321592     -1.22891967     -6.16371640
    H      1.64733451     -0.35933756     -4.68816208
    H      0.37861822     -0.63533140     -5.85745702
    C      0.90246647     -2.37421464     -4.70989504
    N      0.63812990     -3.36143059     -4.19006584
    C      0.67147581      6.08824680     -0.32942412
    H      1.07450269      6.74187475     -1.07456841
    H      0.38661862      6.65920861      0.52950433
    H     -0.18635010      5.58433440     -0.72325924
    C      1.73602973      5.05100828      0.07364063
    N      2.52863852      4.27873705      0.37374065
    C      0.60812529      2.49475135     -3.54218319
    H      1.59507431      2.90776784     -3.52639669
    H      0.04055061      2.95685136     -4.32270972
    H      0.66525822      1.44095491     -3.71867110
    C     -0.07769018      2.75191738     -2.18751616
    N     -0.58831097      2.94338918     -1.17890497
    C      0.99812139     -3.94864094      2.97427796
    H      1.11360926     -4.66325266      2.18631042
    H      0.63705026     -3.02640336      2.56930318
    H      0.29851906     -4.32058319      3.69338479
    C      2.35848449     -3.71214778      3.65624805
    N      3.37133666     -3.53606786      4.16400578
    C     -2.34217215      0.04670538     -1.07183600
    H     -1.44595610      0.48005259     -0.67952598
    H     -2.15316187     -0.33692039     -2.05265477
    H     -2.66258666     -0.74962676     -0.43301774
    C     -3.44293144      1.12126857     -1.14424420
    N     -4.26249676      1.92132971     -1.19815540
    C     -2.71415206     -3.13263139     -4.09151542
    H     -2.12500319     -2.27193046     -4.33025732
    H     -3.67057560     -3.05256479     -4.56452964
    H     -2.21647254     -4.01337787     -4.44008367
    C     -2.90183791     -3.21901699     -2.56543825
    N     -3.04157856     -3.28333500     -1.42920442
    C      1.54145630     -0.62451451      5.17164154
    H      1.01559606     -1.08734161      4.36283856
    H      0.84325238     -0.13141397      5.81527360
    H      2.07179944     -1.37064880      5.72564412
    C      2.53989778      0.40579184      4.61201359
    N      3.28328285      1.17290175      4.19534514
    C      1.48048724      4.20574324      3.81872986
    H      2.27371535      3.72804821      3.28254256
    H      1.87826489      4.69460912      4.68341604
    H      1.00714315      4.92792369      3.18682808
    C      0.44758909      3.15026368      4.25540401
    N     -0.32145053      2.36441117      4.58052777
    C      4.07515156      1.21349504     -1.06434629
    H      3.36772249      0.59202305     -0.55619586
    H      3.89277158      2.23818749     -0.81606819
    H      5.06637781      0.94473724     -0.76411495
    C      3.92918634      1.01996897     -2.58514930
    N      3.82050860      0.87588002     -3.71745628
    C      3.81512963     -2.77067286     -2.59230965
    H      4.25146183     -3.31725240     -3.40210295
    H      3.29772099     -1.91646339     -2.97638460
    H      3.12589163     -3.39924621     -2.06814783
    C      4.92380854     -2.30875344     -1.62843128
    N      5.74927039     -1.96483344     -0.91078002
    C      1.04378885      1.40899677      1.24855373
    H      0.54776175      2.34086051      1.42315976
    H      1.25842371      1.30922976      0.20506079
    H      1.95741118      1.38154498      1.80482680
    C      0.13384854      0.25090753      1.69848475
    N     -0.54364338     -0.61134256      2.03347885
    C      0.36526197     -2.85379156     -0.63802402
    H      1.14321730     -3.16115629      0.02921853
    H      0.22652068     -3.60018487     -1.39204456
    H     -0.54501100     -2.72675609     -0.09015159
    C      0.75538490     -1.52000146     -1.30165649
    N      1.04584915     -0.52693410     -1.79576103
    C     -6.13804920     -1.28847543     -0.93393301
    H     -5.99141563     -0.36263991     -0.41796076
    H     -5.54753517     -2.05176419     -0.47178310
    H     -7.17169082     -1.56150674     -0.88991027
    C     -5.71131871     -1.12945999     -2.40506019
    N     -5.39359846     -1.01106577     -3.50038124
    C     -2.50634387     -0.18159422      4.96341902
    H     -2.18634909      0.39866823      5.80353747
    H     -3.57304855     -0.26494821      4.97302836
    H     -2.19417920      0.29776235      4.05916818
    C     -1.88092248     -1.58668857      5.04189160
    N     -1.41526782     -2.63284518      5.10031800
    C     -2.91255291     -3.23888172      2.01666814
    H     -3.11226008     -3.71491569      2.95390285
    H     -1.85952793     -3.07830281      1.91541657
    H     -3.25641334     -3.86357954      1.21891396
    C     -3.64579204     -1.88576198      1.96164694
    N     -4.19172190     -0.87830282      1.92068115
    C      5.31186633     -0.94744632      2.43852810
    H      5.39426923     -1.53487690      3.32905337
    H      5.39000561      0.09029678      2.68729027
    H      6.09783593     -1.21233169      1.76252025
    C      3.94959451     -1.21432326      1.77175065
    N      2.93532121     -1.41302527      1.27530453
    C     -4.10159476      1.82212711     -4.87898080
    H     -4.41444579      2.17355312     -3.91797915
    H     -4.86757789      1.20473806     -5.29969411
    H     -3.92271993      2.65742383     -5.52332720
    C     -2.80632376      1.00271076     -4.72921472
    N     -1.84193562      0.39261805     -4.61770707
    C     -3.34545580      5.12047617     -1.50658981
    H     -3.34150215      6.17793016     -1.34326313
    H     -2.73929573      4.64283551     -0.76542286
    H     -4.34799619      4.75281106     -1.43851460
    C     -2.78065376      4.81514078     -2.90636442
    N     -2.36013297      4.58780470     -3.94856024
    C     -2.95552295      2.47736325      2.08389205
    H     -3.17372216      2.31960404      3.11946016
    H     -2.41742282      1.63571050      1.70052800
    H     -3.86986051      2.59376148      1.54044254
    C     -2.09997701      3.74824519      1.92736650
    N     -1.46298418      4.69447456      1.81082612
