120
Energy:   -586.60259507
    C      5.29544417      2.11527717      1.71768069
    H      6.34076932      1.99511851      1.52336805
    H      5.08709987      3.14419004      1.92463490
    H      4.73526168      1.80322721      0.86110641
    C      4.89706073      1.25646756      2.93231507
    N      4.60044615      0.61704477      3.83666558
    C      0.18584877     -1.80466662     -5.44891617
    H      0.60148226     -1.39153709     -6.34416640
    H      0.72866927     -2.68582386     -5.17724191
    H      0.25425563     -1.08593993     -4.65920005
    C     -1.29206587     -2.16548636     -5.68803419
    N     -2.39244049     -2.43413307     -5.86606843
    C     -2.67350183      4.45294089     -2.97444305
    H     -2.63884433      3.80035193     -3.82168958
    H     -3.02251365      5.41691630     -3.28077827
    H     -3.33915786      4.04932506     -2.24034809
    C     -1.26301701      4.58568251     -2.37069457
    N     -0.21284694      4.68451468     -1.92117639
    C     -4.30242699     -1.93937310     -0.29517125
    H     -3.24906899     -1.77334847     -0.38333538
    H     -4.80645604     -1.47718342     -1.11811385
    H     -4.49948991     -2.99105111     -0.30138825
    C     -4.80942767     -1.32990082      1.02509155
    N     -5.18691272     -0.87612101      2.00808721
    C      3.42920642     -4.20770679     -2.37153358
    H      2.55433715     -4.68652415     -1.98392825
    H      4.15163206     -4.09791495     -1.58990322
    H      3.84278507     -4.80329604     -3.15837870
    C      3.05336650     -2.81938013     -2.92189114
    N      2.77353660     -1.78570783     -3.33165736
    C      2.64614811      4.69110260     -0.14083980
    H      1.88996725      4.00696362      0.18326596
    H      2.20020428      5.45907523     -0.73770766
    H      3.11816910      5.13146708      0.71249156
    C      3.69695352      3.93664783     -0.97642701
    N      4.47932591      3.37492196     -1.59855967
    C     -1.30971006      1.78807739     -0.42223290
    H     -2.08347284      2.52169382     -0.33279976
    H     -1.30717244      1.39170467     -1.41610478
    H     -0.36266000      2.24169306     -0.21673817
    C     -1.56276696      0.64982904      0.58372580
    N     -1.75117933     -0.19764860      1.33270777
    C      3.55107261     -2.92246041      3.06210544
    H      3.82415603     -1.94698898      2.71745908
    H      4.35770754     -3.33956173      3.62802564
    H      2.68075789     -2.85155604      3.68050979
    C      3.24968741     -3.82814688      1.85359438
    N      3.02529243     -4.50247162      0.95380296
    C      1.74465402      2.47052726      5.26743169
    H      2.36882965      1.60734770      5.36855537
    H      0.73535089      2.16215050      5.09105124
    H      1.78875358      3.04980926      6.16597867
    C      2.23548019      3.32296107      4.08250710
    N      2.60092258      3.95763678      3.20027689
    C      5.20522557      0.16532153     -1.99211665
    H      5.66545900     -0.51251217     -2.68032218
    H      5.91547465      0.90806178     -1.69415314
    H      4.36973570      0.63947684     -2.46331990
    C      4.72308574     -0.61052598     -0.75227721
    N      4.36411072     -1.18817971      0.17083960
    C      1.54640284      1.52607453     -2.88275392
    H      1.55058362      0.55377211     -2.43608769
    H      1.55585232      2.27131398     -2.11501181
    H      2.41318075      1.63878829     -3.49991740
    C      0.27927095      1.69065218     -3.74234160
    N     -0.66416634      1.81318773     -4.38234369
    C      0.03769236     -5.98394688      0.53107540
    H     -0.19456220     -7.02837347      0.54252477
    H      0.53317845     -5.71874853      1.44160407
    H      0.67822796     -5.77008406     -0.29891010
    C     -1.26305903     -5.17024185      0.39867468
    N     -2.23152756     -4.56440146      0.30009632
    C      0.72174921     -2.24219536     -0.38192836
    H      0.98778739     -3.24340977     -0.64968495
    H      0.26551765     -2.24108815      0.58593042
    H      1.60091221     -1.63260989     -0.36251033
    C     -0.26985378     -1.68013503     -1.41750149
    N     -1.00814728     -1.26165557     -2.18853275
    C     -5.00997287      2.55009909      1.27829801
    H     -4.37834980      1.68641372      1.27805294
    H     -5.82160017      2.39860690      0.59770244
    H     -5.39570438      2.70959672      2.26352428
    C     -4.19573483      3.78164075      0.84020947
    N     -3.58949761      4.69857950      0.51403263
    C     -2.52015078     -2.86520656      3.50348916
    H     -3.13491930     -3.56828682      2.98134166
    H     -2.73121998     -1.87685229      3.15205679
    H     -2.72490237     -2.92217973      4.55216925
    C     -1.03686991     -3.19378972      3.25147528
    N      0.06750011     -3.43843481      3.06383949
    C     -3.24657492      0.96593461      4.30701633
    H     -3.52195352      1.86615090      4.81561975
    H     -4.03841293      0.25139927      4.39263702
    H     -3.06948630      1.17996865      3.27370701
    C     -1.96545374      0.39064279      4.93897191
    N     -1.01160080     -0.03768811      5.40949156
    C      1.27889149     -0.01349178      2.72103072
    H      1.01358860     -1.01921461      2.46996074
    H      0.43338414      0.48168975      3.15092802
    H      2.08360952     -0.02234531      3.42619000
    C      1.71943622      0.73404987      1.44874859
    N      2.04744180      1.29062861      0.50147671
    C     -2.66050453     -4.32013341     -3.11273161
    H     -3.02282833     -4.62318582     -4.07282582
    H     -2.85409132     -3.27733394     -2.97133679
    H     -3.15819576     -4.88190265     -2.35009287
    C     -1.14410280     -4.57628891     -3.03204605
    N     -0.01507278     -4.76700831     -2.97197198
    C     -3.59629213      0.24731482     -4.13188537
    H     -4.28495639     -0.53012181     -4.38924505
    H     -2.61126130     -0.16207475     -4.04813854
    H     -3.60650376      0.99923107     -4.89307967
    C     -4.00814208      0.87326114     -2.78645948
    N     -4.31478309      1.33930663     -1.78472876
    C     -0.47005907      5.39276838      1.73980756
    H      0.52043518      5.70492169      1.99745389
    H     -1.17558061      6.11283355      2.09847817
    H     -0.55300730      5.31131851      0.67614192
    C     -0.76082383      4.02436987      2.38365645
    N     -0.97731140      3.00553498      2.86303121
