120
Energy:   -586.50445317
    C      0.85997643      2.58406354     -1.99661427
    H      0.54010259      2.96008674     -1.04730534
    H      0.49530923      1.58652729     -2.12637694
    H      0.47529167      3.20860437     -2.77562998
    C      2.39886505      2.57970578     -2.05494808
    N      3.54463757      2.57646123     -2.09838025
    C     -0.77164927     -2.19131838     -1.94826912
    H     -0.18841731     -1.33483154     -2.21504796
    H     -1.41014690     -1.94583115     -1.12549583
    H     -1.36738067     -2.49178275     -2.78476440
    C      0.16530154     -3.34489526     -1.54455691
    N      0.86290401     -4.20378569     -1.24397481
    C      5.28055650     -0.22927395     -1.85726430
    H      5.90152546     -1.02579725     -2.21060319
    H      5.65338183      0.70373402     -2.22522691
    H      4.27961658     -0.37583041     -2.20588954
    C      5.29084091     -0.21477809     -0.31736687
    N      5.29849811     -0.20398527      0.82915676
    C     -0.79955145      5.45881121      1.77208975
    H     -0.01468912      4.99410201      2.33149717
    H     -1.69355128      4.87771071      1.86145200
    H     -0.97447498      6.44325758      2.15309655
    C     -0.39071519      5.54712868      0.28997877
    N     -0.08631801      5.61288505     -0.81352021
    C      1.34119800      2.58821385      4.87059097
    H      1.65243770      1.58790174      4.65286244
    H      1.43808102      2.77138560      5.92033422
    H      1.95475192      3.27829660      4.33000196
    C     -0.12925523      2.77108216      4.45115507
    N     -1.22407450      2.90723592      4.13886597
    C      4.93833432     -0.91583120      4.31756836
    H      5.62091655     -1.15397913      5.10640754
    H      5.34606734     -1.24027670      3.38301606
    H      4.00589481     -1.41115947      4.49107786
    C      4.71111089      0.60678794      4.27756227
    N      4.54193272      1.74044709      4.24777592
    C     -2.45406150     -5.71798324     -1.96262777
    H     -1.42931547     -5.90916764     -2.20396627
    H     -2.81108541     -4.89653674     -2.54799830
    H     -3.03895774     -6.58835791     -2.17533276
    C     -2.57326908     -5.37240003     -0.46664588
    N     -2.66202453     -5.11509762      0.64718063
    C     -2.60664483      4.05133570     -2.77087007
    H     -3.38912220      4.33406056     -3.44369693
    H     -2.27205528      3.06305855     -3.00805610
    H     -1.79024391      4.73653118     -2.86518751
    C     -3.13702913      4.08063432     -1.32538258
    N     -3.53192436      4.10244847     -0.24915144
    C     -1.30362102      1.58517067      1.05604133
    H     -0.26780817      1.80604380      0.90370294
    H     -1.40159803      0.84628919      1.82373511
    H     -1.81867656      2.47569465      1.35029280
    C     -1.91210969      1.04902571     -0.25311493
    N     -2.36515717      0.64984142     -1.22784128
    C      2.47084125     -5.02328892     -4.10768240
    H      1.51671483     -4.64490906     -4.40995983
    H      2.35343428     -5.63027444     -3.23436500
    H      2.88765818     -5.61212100     -4.89789725
    C      3.41314519     -3.84678755     -3.79223385
    N      4.11473331     -2.97082879     -3.55736807
    C      3.97211204     -3.51009334     -0.21199008
    H      3.41049459     -2.77456473     -0.74909684
    H      3.70825560     -4.48613256     -0.56217046
    H      5.01761864     -3.34536460     -0.36908717
    C      3.65542889     -3.40102390      1.29114519
    N      3.41964388     -3.31981675      2.41029772
    C      2.17834148     -0.21280718     -4.43933194
    H      2.19957326     -0.08362109     -3.37737133
    H      1.84695016      0.69314861     -4.90228225
    H      3.16051254     -0.45349782     -4.78905630
    C      1.21114554     -1.35622512     -4.79811799
    N      0.49102420     -2.20755174     -5.06525051
    C      1.96184196     -0.11669037      1.98713413
    H      1.94222300     -1.06905308      2.47449493
    H      1.12494537      0.46655982      2.31012391
    H      2.86913098      0.39285562      2.23630997
    C      1.88876598     -0.31880996      0.46220542
    N      1.83435760     -0.46929717     -0.67317332
    C     -2.48920753     -0.48365004      4.39395993
    H     -3.01761586     -1.11710795      5.07544059
    H     -2.72086915     -0.76901333      3.38907198
    H     -2.78177653      0.53330685      4.55239341
    C     -0.97419164     -0.62489231      4.63139930
    N      0.15380656     -0.73005360      4.80818371
    C     -5.74196957      1.18194864     -1.17102189
    H     -5.89561754      0.12311440     -1.15827270
    H     -6.63436730      1.67576899     -0.84749933
    H     -4.93659524      1.43343238     -0.51297386
    C     -5.39558208      1.63319849     -2.60210166
    N     -5.13768085      1.96917451     -3.66760559
    C     -2.88792277     -0.46021489     -4.53693934
    H     -3.22734352     -0.59686767     -3.53144456
    H     -2.53923785     -1.39411938     -4.92570703
    H     -3.69558011     -0.10189973     -5.14042833
    C     -1.73883140      0.56488315     -4.55599233
    N     -0.88328063      1.32811523     -4.57017815
    C      0.13302559     -4.15860910      2.36740230
    H      0.71487116     -4.58662609      1.57799913
    H     -0.64530256     -4.83810541      2.64559134
    H      0.76178083     -3.97113252      3.21263508
    C     -0.48912504     -2.83444161      1.88666425
    N     -0.95234447     -1.84853873      1.52873293
    C     -4.22776887     -1.88612866      0.72393326
    H     -5.21417059     -1.59375151      1.01791871
    H     -3.55620004     -1.06466801      0.86212443
    H     -3.90759292     -2.71317030      1.32258890
    C     -4.23545891     -2.29890146     -0.75969725
    N     -4.24118450     -2.60622957     -1.86432760
    C     -4.54253718      3.73150756      2.97973303
    H     -3.55127675      3.99919344      3.28080979
    H     -5.21544823      3.87624552      3.79896482
    H     -4.84393446      4.34653753      2.15766435
    C     -4.56693556      2.25273950      2.55048978
    N     -4.58510127      1.15172947      2.23089867
    C      4.56832564      3.33970612      1.19016541
    H      5.00902797      2.42904320      1.53855409
    H      4.95502540      4.16203632      1.75508615
    H      4.80288200      3.47633526      0.15517030
    C      3.03989659      3.27019528      1.36530216
    N      1.90191169      3.21844130      1.49569943
