120
Energy:   -595.57954328
    C      4.70720933     -3.57058619      1.01322896
    H      4.85275865     -3.11922018      0.05407084
    H      5.46894897     -4.30278867      1.18214117
    H      4.76027485     -2.81892121      1.77288870
    C      3.32501431     -4.24822846      1.05725029
    N      2.29590729     -4.75276394      1.09002616
    C      1.16976604     -1.62538923     -4.52604117
    H      2.21758434     -1.84010185     -4.55562979
    H      0.71991916     -1.91559648     -5.45249496
    H      0.71672857     -2.16940089     -3.72372736
    C      0.96116913     -0.11570923     -4.30478650
    N      0.80585925      1.00831615     -4.14005234
    C      1.39991143      5.57623185      1.64453480
    H      0.82297318      5.77399284      2.52370090
    H      2.07472663      6.38819507      1.47064038
    H      1.95657537      4.67239169      1.77906103
    C      0.45786018      5.42383772      0.43585144
    N     -0.24353980      5.31037337     -0.46406826
    C     -1.86593067     -0.51383560     -2.26993766
    H     -2.86402570     -0.62952954     -2.63779823
    H     -1.29259163     -1.38350674     -2.51458748
    H     -1.41752923      0.34718573     -2.71991268
    C     -1.89996250     -0.33487320     -0.74075020
    N     -1.92530074     -0.20162757      0.39779938
    C      2.07458558     -4.79524216     -2.38144789
    H      1.48006658     -4.53878203     -1.52958197
    H      2.47362362     -5.77990271     -2.25451745
    H      1.46708170     -4.76734471     -3.26182273
    C      3.23028556     -3.78732758     -2.52310158
    N      4.09075672     -3.03688936     -2.62856919
    C      0.63563265      2.03374981     -0.68966464
    H     -0.41226377      2.25008800     -0.68633883
    H      0.80717695      1.10843928     -1.19885229
    H      1.16047657      2.81963458     -1.19148440
    C      1.14154258      1.92305320      0.76064615
    N      1.51821551      1.84063454      1.84046846
    C     -4.28292050     -3.32199845     -3.91496698
    H     -4.61386284     -2.53811637     -4.56373986
    H     -4.85585252     -4.20599756     -4.10256647
    H     -3.24777495     -3.52253543     -4.09705953
    C     -4.47185323     -2.88928064     -2.44913626
    N     -4.61252223     -2.56710256     -1.35775865
    C      0.97561354     -3.88232258      4.78422410
    H      0.44906267     -3.02985907      5.15965761
    H      0.96425673     -4.66044442      5.51859221
    H      0.50144188     -4.22901142      3.88987116
    C      2.43225384     -3.49034556      4.47413850
    N      3.51678874     -3.19850086      4.24326568
    C      0.83778486      3.20586620      5.07701392
    H      0.18590781      4.05102109      5.15231135
    H      0.89783405      2.71604234      6.02641677
    H      0.45441648      2.52362692      4.34730348
    C      2.24134095      3.67637057      4.65244834
    N      3.28635226      4.02668245      4.33633996
    C      4.97443343      3.08994020      1.57401006
    H      4.31326347      2.55118919      2.22015387
    H      5.31421656      3.97541659      2.06936659
    H      5.81420325      2.47380107      1.32894210
    C      4.22834809      3.47769532      0.28381526
    N      3.67285364      3.76639663     -0.67679342
    C      3.89833562      0.38164841     -2.09397219
    H      3.43654364      1.34287370     -2.18168929
    H      3.25205157     -0.36368147     -2.50833843
    H      4.82766100      0.38269047     -2.62430449
    C      4.15560339      0.06942007     -0.60806278
    N      4.34715094     -0.16304812      0.49826431
    C      1.23299154     -1.56627524      1.66268069
    H      0.81771556     -2.47719077      2.04040934
    H      0.65771092     -0.73736285      2.01884856
    H      2.24427827     -1.46910952      1.99847388
    C      1.20315560     -1.58809804      0.12312440
    N      1.18094138     -1.60434611     -1.02314524
    C     -1.50432002     -3.97328955      0.51002171
    H     -0.64438129     -4.41869330      0.96501738
    H     -2.38246714     -4.50664001      0.80884274
    H     -1.58390364     -2.95254371      0.82089705
    C     -1.36357236     -4.03372618     -1.02234167
    N     -1.25877934     -4.07872401     -2.16325585
    C     -5.38301478      1.16146459     -1.48974702
    H     -6.37848463      1.10356936     -1.10169020
    H     -5.06949696      2.18415584     -1.51636080
    H     -4.72207681      0.60203846     -0.86117523
    C     -5.35277017      0.57803396     -2.91463086
    N     -5.33025168      0.14364334     -3.97552165
    C     -1.66928437      0.46687106      3.75568805
    H     -2.64303822      0.86961216      3.56993764
    H     -0.97566432      0.86970176      3.04750887
    H     -1.35893623      0.72649807      4.74623181
    C     -1.71277049     -1.06622169      3.61663563
    N     -1.74514789     -2.20767893      3.51310478
    C     -4.76811398     -1.81573443      1.87906843
    H     -4.73426596     -2.20865544      2.87373801
    H     -3.86203971     -2.06350089      1.36668158
    H     -5.60048985     -2.23886642      1.35656596
    C     -4.92290073     -0.28462691      1.93695488
    N     -5.03814650      0.85535223      1.98005397
    C      3.76207462      0.28829899      4.09462127
    H      4.15313264      1.18125115      4.53576777
    H      3.67884320      0.42032450      3.03606524
    H      4.42034850     -0.52951713      4.30138537
    C      2.37160966     -0.00985933      4.68564479
    N      1.33634528     -0.23185175      5.12568865
    C     -2.62739748      1.26468828     -5.89421940
    H     -3.28362595      1.56814049     -5.10543481
    H     -3.10358895      1.43042753     -6.83797322
    H     -1.72358487      1.83535797     -5.84566058
    C     -2.29837324     -0.23193713     -5.74106768
    N     -2.05339974     -1.34624277     -5.62703925
    C     -0.44734482      4.22665946     -3.65936346
    H     -0.44876315      5.20762093     -3.23203131
    H     -0.54296938      4.30061541     -4.72251235
    H      0.47085327      3.73349348     -3.41729181
    C     -1.62919656      3.41815588     -3.09266387
    N     -2.50913890      2.81618821     -2.67073026
    C     -3.09073843      3.32748831      0.66924401
    H     -4.10809273      3.41512300      0.98894789
    H     -2.91857719      2.34035875      0.29396434
    H     -2.89695068      4.04169929     -0.10357426
    C     -2.15320006      3.59415907      1.86151433
    N     -1.45516012      3.79270758      2.74921377
