120
Energy:   -586.43814544
    C      5.74222548     -4.84604348      0.49952929
    H      6.20595858     -4.32316852     -0.31068893
    H      6.18515633     -5.81499410      0.59875664
    H      5.88230399     -4.29530356      1.40615084
    C      4.23569616     -4.99668208      0.21796685
    N      3.11401660     -5.10883936      0.00833082
    C     -0.05622851     -1.66791072     -4.83551098
    H      0.64640884     -1.21686040     -5.50465562
    H     -1.05046517     -1.41015650     -5.13543651
    H      0.05946803     -2.73134288     -4.86051988
    C      0.19694044     -1.15751112     -3.40477770
    N      0.38543624     -0.77749542     -2.33953174
    C      0.18546040      5.58443254     -1.18713251
    H     -0.67744961      5.10840079     -0.77038287
    H     -0.01558866      5.86355659     -2.20032950
    H      0.42122103      6.45833097     -0.61650343
    C      1.37744919      4.61007021     -1.14997345
    N      2.26493902      3.88461317     -1.12230683
    C     -0.12993468      2.73578709     -3.92722921
    H      0.54922217      2.69781129     -4.75318563
    H      0.38317739      2.45751523     -3.03046845
    H     -0.51248154      3.72986749     -3.82543956
    C     -1.29533120      1.76021290     -4.17563600
    N     -2.16302189      1.03385357     -4.36058615
    C      1.87314670     -3.85596623      3.09552763
    H      1.79982256     -4.69324554      2.43334404
    H      1.37080359     -3.01527637      2.66449277
    H      1.41831394     -4.10132211      4.03245172
    C      3.35629900     -3.50774521      3.32047509
    N      4.46057331     -3.24847883      3.48795869
    C     -2.41989045     -0.02789146     -0.78547680
    H     -3.26917738     -0.11777587     -0.14085856
    H     -1.63694484     -0.66756299     -0.43516893
    H     -2.69497303     -0.31239903     -1.77960159
    C     -1.92849438      1.43160454     -0.78663010
    N     -1.56262766      2.51826565     -0.78748878
    C     -3.48939185     -3.06317527     -3.25088661
    H     -3.12085434     -2.10357462     -3.54795037
    H     -4.48189064     -3.19639884     -3.62784380
    H     -2.85260755     -3.82743541     -3.64498213
    C     -3.50784744     -3.15257738     -1.71359462
    N     -3.52158847     -3.21914131     -0.56901086
    C      2.79929817     -0.23325220      4.51503980
    H      2.09252110     -0.81905384      3.96531005
    H      2.28253473      0.36513325      5.23600407
    H      3.48665822     -0.88189252      5.01673791
    C      3.57099860      0.68219532      3.54651809
    N      4.14556465      1.36378761      2.82540966
    C      2.25300662      4.38256137      2.52642168
    H      2.89806214      4.93596585      3.17645787
    H      1.59404009      5.05626833      2.01968592
    H      2.84138323      3.85113859      1.80788019
    C      1.42620411      3.38128798      3.35434029
    N      0.81061206      2.63579443      3.97076332
    C      3.83843124      0.85668739     -2.26637424
    H      3.27271061      0.30723796     -1.54321058
    H      3.88450341      1.88559076     -1.97631513
    H      4.82947112      0.45718252     -2.32236455
    C      3.15997877      0.74162026     -3.64407588
    N      2.65484007      0.65594756     -4.66983737
    C      3.13075596     -3.05220132     -2.82908326
    H      2.47137883     -2.63491454     -2.09696735
    H      3.02495805     -4.11691336     -2.83878747
    H      2.88572478     -2.66061855     -3.79423700
    C      4.58470037     -2.68397875     -2.47971556
    N      5.66722808     -2.40982030     -2.21959543
    C      1.29567425      1.19592398      0.53639499
    H      0.85623101      2.14631285      0.75673750
    H      1.17375361      0.97927970     -0.50432577
    H      2.33825916      1.22094874      0.77574735
    C      0.60307443      0.10386139      1.37263945
    N      0.08740239     -0.70922886      1.99526145
    C      0.09503761     -3.52181352     -0.12250696
    H      0.14030982     -4.35779816      0.54381150
    H     -0.72045559     -2.88751983      0.15595571
    H      1.01063521     -2.97097072     -0.06636135
    C     -0.11419642     -4.02433207     -1.56309581
    N     -0.26998067     -4.39847998     -2.63567969
    C     -6.22380577     -0.49743002      0.68532135
    H     -6.22572763     -0.70660921      1.73467379
    H     -5.55365343     -1.16799065      0.18919297
    H     -7.21143380     -0.62595680      0.29420647
    C     -5.76411125      0.95372275      0.45200488
    N     -5.42184779      2.03417195      0.27829016
    C     -1.16480379      0.20266159      5.20019965
    H     -1.07241114      0.55636417      4.19458628
    H     -0.62406781      0.85112378      5.85746708
    H     -2.19731988      0.19084009      5.48068115
    C     -0.58998340     -1.22269495      5.29787391
    N     -0.16200348     -2.28393768      5.37059684
    C     -2.41930285     -3.04286912      2.75749131
    H     -2.63179970     -3.46782596      3.71621805
    H     -1.35978039     -2.98843394      2.61839396
    H     -2.84841874     -3.65583560      1.99261829
    C     -3.02078150     -1.62737886      2.67868294
    N     -3.46860969     -0.57348202      2.62000653
    C      5.87977195     -1.00935621      1.06589895
    H      6.14699514     -1.48505320      1.98633597
    H      6.00468417      0.04897527      1.16197453
    H      6.50912282     -1.37295064      0.28065016
    C      4.40959269     -1.32461070      0.73305134
    N      3.31497740     -1.55933200      0.48523116
    C     -5.04736083      2.18481502     -3.23174800
    H     -4.08770161      2.47704861     -2.85951970
    H     -5.80746917      2.76783682     -2.75507203
    H     -5.08423548      2.34642727     -4.28882928
    C     -5.28149339      0.69249806     -2.93212819
    N     -5.45581572     -0.41859975     -2.70904763
    C     -3.90858032      5.09300829     -0.61177202
    H     -4.95796914      5.28532691     -0.69360628
    H     -3.45366642      5.84863723     -0.00598548
    H     -3.75568510      4.13464397     -0.16115026
    C     -3.27303454      5.10800067     -2.01443263
    N     -2.79984182      5.11916317     -3.05877721
    C     -2.43262545      2.69049788      2.54358278
    H     -2.62459719      2.67583584      3.59611879
    H     -1.78384068      1.87891492      2.28802359
    H     -3.35544444      2.59063566      2.01129363
    C     -1.76192402      4.02340236      2.16262972
    N     -1.26255632      5.01581034      1.87899285
