120
Energy:   -586.42528683
    C      5.07349855     -5.09074375      2.15169683
    H      5.74990176     -4.43369113      1.64606778
    H      5.50718984     -6.06662709      2.21850000
    H      4.88229518     -4.71727225      3.13600339
    C      3.75097986     -5.16938575      1.36661100
    N      2.76630458     -5.22793830      0.78207892
    C      1.40601308     -1.26131234     -5.08556734
    H      0.48009646     -0.75892814     -5.27315386
    H      1.96836481     -1.32362364     -5.99373964
    H      1.96653245     -0.71537762     -4.35572324
    C      1.12254535     -2.68042879     -4.55892273
    N      0.91149073     -3.73702550     -4.16681188
    C      0.97322607      5.44517305     -1.22155213
    H      0.04185195      4.92180362     -1.28093968
    H      1.22920007      5.82841084     -2.18721522
    H      0.88345231      6.25548422     -0.52856182
    C      2.07450641      4.48061380     -0.74363263
    N      2.89445968      3.76245558     -0.38779984
    C      0.98417237      2.09160413     -3.53959298
    H      1.74500090      1.94364409     -4.27725683
    H      0.35247146      1.22885133     -3.50072567
    H      1.43936255      2.24374355     -2.58326950
    C      0.14319003      3.32731023     -3.91023990
    N     -0.48295954      4.24734959     -4.18620338
    C      0.43730456     -3.91685137      3.15300541
    H      0.55756576     -4.64455181      2.37783479
    H      0.15928453     -2.97822560      2.72104984
    H     -0.32712124     -4.23878816      3.82895585
    C      1.76456342     -3.75707756      3.91750280
    N      2.75276797     -3.63811870      4.48670585
    C     -2.92583237      0.40458912     -1.12662833
    H     -3.89811450      0.69561781     -0.78770364
    H     -2.53019763     -0.34522353     -0.47382419
    H     -2.99696049      0.01173840     -2.11935599
    C     -1.99351820      1.63030859     -1.12519076
    N     -1.29936793      2.54291246     -1.12412043
    C     -2.51109532     -2.59331355     -4.06032747
    H     -1.69803771     -1.89869407     -4.02370383
    H     -3.31678951     -2.16999214     -4.62295963
    H     -2.18591547     -3.49865060     -4.52885921
    C     -2.98970988     -2.89930470     -2.62893042
    N     -3.34606017     -3.12712901     -1.56319025
    C      1.35357524     -0.28840985      4.73018910
    H      1.34471935     -0.84246747      3.81485206
    H      0.95390897     -0.89329792      5.51713026
    H      2.35885882     -0.01066719      4.96927701
    C      0.49468337      0.97986607      4.57087506
    N     -0.14480067      1.92415513      4.45225851
    C      2.28192934      4.28141412      3.17669010
    H      2.84612010      4.99755009      3.73681353
    H      1.31697563      4.15982873      3.62276233
    H      2.16863908      4.62529019      2.16980696
    C      3.02178301      2.93077888      3.17767959
    N      3.57263769      1.92516954      3.17841630
    C      4.90917966      1.06599031     -0.22412050
    H      4.22444328      1.15195051      0.59358795
    H      5.37093950      2.01434268     -0.40385563
    H      5.66081919      0.34283750      0.01459925
    C      4.14829878      0.61815205     -1.48590542
    N      3.58178837      0.28471611     -2.42536164
    C      3.67212515     -3.10777055     -1.97628024
    H      3.26698018     -4.06656631     -1.72835200
    H      4.00168553     -3.11222391     -2.99425333
    H      2.91905700     -2.35847076     -1.84846280
    C      4.86476776     -2.79984287     -1.05195121
    N      5.75274439     -2.57057672     -0.36374623
    C      1.04010462      1.15851122      0.72041423
    H      0.74821997      2.17224631      0.89942455
    H      1.12302797      0.99199236     -0.33329080
    H      1.98500935      0.97181735      1.18646094
    C     -0.01910567      0.20785107      1.30856290
    N     -0.80773588     -0.49995861      1.74646631
    C      0.21690136     -3.35026246     -0.61554344
    H      0.83800163     -3.23567188      0.24817158
    H      0.65201251     -4.07232126     -1.27448840
    H     -0.75485643     -3.68194958     -0.31459569
    C      0.09535104     -1.99857839     -1.34340036
    N      0.00485131     -0.99218815     -1.88532292
    C     -6.49159233     -1.27904598     -1.24594587
    H     -7.50311268     -1.58222505     -1.41859929
    H     -6.47559435     -0.47665296     -0.53826755
    H     -5.93230377     -2.10578916     -0.86047069
    C     -5.86374061     -0.80764788     -2.57078022
    N     -5.39627647     -0.45667057     -3.55717961
    C     -3.09424823      0.11719795      4.53942077
    H     -2.75082229      0.89362235      5.19066877
    H     -4.13378831     -0.06357372      4.71712026
    H     -2.95314419      0.41670530      3.52193166
    C     -2.29544716     -1.17116569      4.81078025
    N     -1.70070346     -2.13041099      5.01281972
    C     -3.09764643     -3.12663021      1.78499739
    H     -3.11116907     -3.48409465      2.79343008
    H     -2.09173617     -2.89735020      1.50131745
    H     -3.48877862     -3.88045097      1.13409882
    C     -3.96300634     -1.85719978      1.67870240
    N     -4.60730612     -0.91205113      1.59956094
    C      4.94308732     -1.33732935      2.88128324
    H      4.82563372     -1.86889243      3.80244855
    H      5.09314606     -0.29786200      3.08595146
    H      5.78982731     -1.72261640      2.35262042
    C      3.67748541     -1.51380682      2.02180228
    N      2.73518726     -1.64520231      1.38187964
    C     -3.70201452      2.46419793     -4.33957934
    H     -3.21851673      3.40581760     -4.18311053
    H     -4.19406884      2.16187923     -3.43881020
    H     -4.42251449      2.55935705     -5.12489687
    C     -2.65271626      1.40712257     -4.73094216
    N     -1.87146602      0.62008192     -5.02232957
    C     -2.90930902      5.57787528     -1.54482063
    H     -2.26383523      5.21971259     -2.31940648
    H     -2.32677728      5.83093610     -0.68370735
    H     -3.43233901      6.44549897     -1.88915747
    C     -3.92394863      4.48041195     -1.17376712
    N     -4.67939393      3.66330061     -0.89750092
    C     -2.54226359      3.01033339      2.17451573
    H     -2.70873479      3.00021530      3.23143821
    H     -2.19025566      2.05019160      1.85968682
    H     -3.45895423      3.23676147      1.67121892
    C     -1.48994663      4.08089706      1.83082628
    N     -0.70644881      4.87798038      1.57493386
