120
Energy:   -586.21056643
    C      5.45588688     -4.10161602      1.85678912
    H      6.12390748     -3.59730754      1.19021459
    H      5.97173329     -4.90654305      2.33730349
    H      5.10208165     -3.41320289      2.59557753
    C      4.26121628     -4.65975134      1.06127223
    N      3.37172972     -5.07530846      0.46897374
    C      0.88161067     -1.24942768     -5.10640513
    H      1.78578066     -1.33707046     -5.67182140
    H      1.01425676     -0.52317288     -4.33190008
    H      0.08578488     -0.94124304     -5.75183725
    C      0.53476420     -2.61210951     -4.47839578
    N      0.27652124     -3.62668808     -4.01081428
    C      1.55337628      5.38260127      0.02269237
    H      0.61676913      4.88560051     -0.12103465
    H      1.88618223      5.79243980     -0.90799107
    H      1.43322808      6.17041197      0.73670764
    C      2.59532411      4.37418944      0.54139297
    N      3.37110163      3.62338100      0.92758914
    C      0.77468579      2.48302728     -4.48600894
    H      1.73465873      2.07047422     -4.71655637
    H      0.67700248      3.44122826     -4.95206468
    H      0.00912195      1.82986306     -4.84958505
    C      0.63547274      2.63777067     -2.96014060
    N      0.53182230      2.75298416     -1.82406226
    C      0.97114432     -4.13499014      3.10637890
    H      1.17078626     -4.81768677      2.30702379
    H      0.64829979     -3.19802001      2.70294679
    H      0.20363326     -4.53618683      3.73476340
    C      2.25310843     -3.92353022      3.93309090
    N      3.20758898     -3.76608870      4.54861557
    C     -2.06836391      0.36092948     -1.01601026
    H     -1.49284374      1.18530902     -0.64984760
    H     -1.73217476     -0.54276302     -0.55209666
    H     -3.10157432      0.51704723     -0.78578739
    C     -1.89349282      0.25038779     -2.54205110
    N     -1.76329336      0.16808447     -3.67825787
    C     -3.14749514     -3.11627671     -4.09648236
    H     -2.84302954     -2.19406393     -4.54561983
    H     -4.18070178     -3.29344107     -4.31094894
    H     -2.55864154     -3.91724101     -4.49221801
    C     -2.94616145     -3.03579948     -2.57182234
    N     -2.79625936     -2.97588052     -1.43664366
    C      1.31033263     -0.84731273      5.32570828
    H      0.85178382     -1.32555735      4.48552065
    H      0.55484228     -0.40213711      5.93885761
    H      1.85195998     -1.57208920      5.89688072
    C      2.27810468      0.24342021      4.83041147
    N      2.99865496      1.05552045      4.46164049
    C      1.24228815      4.02270693      4.00854908
    H      0.83766174      4.70951070      3.29477164
    H      2.10054258      3.53888839      3.59115473
    H      1.52700053      4.55372879      4.89277401
    C      0.17962801      2.96628353      4.36396857
    N     -0.61157076      2.17972828      4.62859455
    C      3.90968989      1.18538486     -1.53306639
    H      3.56356418      0.42190433     -0.86808920
    H      3.30769790      2.06191952     -1.41393733
    H      4.92912543      1.41948401     -1.30757166
    C      3.80704533      0.68574278     -2.98613964
    N      3.73062180      0.31373654     -4.06801873
    C      3.74656547     -3.16012371     -2.60398457
    H      4.30530559     -3.74482518     -3.30457993
    H      3.15897322     -2.43760902     -3.13086877
    H      3.10195425     -3.80048986     -2.03891231
    C      4.71585096     -2.43682191     -1.65061154
    N      5.43752807     -1.89829084     -0.94078199
    C      1.00040833      1.26701339      1.27487010
    H      0.41092668      2.13569548      1.06798128
    H      1.49779773      0.95239034      0.38127332
    H      1.72741210      1.49961291      2.02471148
    C      0.08660875      0.13481109      1.77953659
    N     -0.59375658     -0.70816499      2.15528374
    C      0.43600797     -3.11501064     -0.43169862
    H      1.24398362     -3.49306206      0.15919279
    H      0.17776914     -3.83175695     -1.18302181
    H     -0.41153676     -2.93543623      0.19625047
    C      0.86462950     -1.79777087     -1.10457527
    N      1.18375771     -0.81702599     -1.60556251
    C     -6.15072605      0.19737124     -0.76803859
    H     -7.05993591      0.75095646     -0.87657899
    H     -5.39873610      0.82694183     -0.34019391
    H     -6.31912073     -0.64299124     -0.12746602
    C     -5.68208360     -0.29599578     -2.14954619
    N     -5.33315799     -0.66332995     -3.17814139
    C     -2.73403601     -0.43846850      4.96277936
    H     -2.44914321      0.12126392      5.82905639
    H     -3.79971932     -0.52917840      4.93131671
    H     -2.39298675      0.06695564      4.08350071
    C     -2.10113621     -1.84094575      5.02677476
    N     -1.62991354     -2.88515381      5.07442224
    C     -2.95825074     -3.34838161      1.91194526
    H     -3.31902205     -3.86568979      2.77631583
    H     -1.90465934     -3.18743539      2.00649985
    H     -3.15247481     -3.93489676      1.03834576
    C     -3.67585758     -1.99134098      1.78913986
    N     -4.21014849     -0.98096255      1.69770565
    C      4.93812185      0.10318247      1.92358214
    H      5.33990603      0.00523015      2.91043319
    H      4.59777352      1.10667440      1.77503571
    H      5.69714275     -0.12604894      1.20508417
    C      3.75727535     -0.87019753      1.75114981
    N      2.87808145     -1.59492319      1.62276611
    C     -4.29033613      2.11406365     -4.85917737
    H     -4.76650777      2.09205435     -3.90122312
    H     -3.91862251      1.13886021     -5.09519928
    H     -4.99842397      2.41542959     -5.60260811
    C     -3.12087540      3.11556463     -4.82823567
    N     -2.25015874      3.86122764     -4.80519817
    C     -2.29573370      5.08349678     -1.67918623
    H     -2.69511292      5.76947911     -2.39669906
    H     -1.37405974      4.68133369     -2.04481042
    H     -2.12033296      5.59501903     -0.75588852
    C     -3.29989546      3.93879752     -1.44913668
    N     -4.04753952      3.08651690     -1.27785434
    C     -3.15038834      2.22949328      2.10928900
    H     -3.47236057      2.31622856      3.12600482
    H     -2.68470180      1.27737706      1.96262665
    H     -3.99544445      2.31719126      1.45883660
    C     -2.14097864      3.34877738      1.79322707
    N     -1.38942723      4.18213527      1.55790459
