120
Energy:   -586.20870192
    C      5.23339266     -5.09383639      1.88465911
    H      5.88635149     -4.44699999      1.33680182
    H      5.67857137     -6.06332209      1.96719680
    H      5.07099982     -4.69149120      2.86274194
    C      3.88661737     -5.20853908      1.14666207
    N      2.88388196     -5.29394045      0.59718973
    C      1.29385420     -1.19806205     -5.11830178
    H      0.66385325     -0.95990653     -5.94973484
    H      2.31881614     -1.14600542     -5.42102644
    H      1.11969468     -0.49907428     -4.32711049
    C      0.97606458     -2.62177299     -4.62468563
    N      0.73945577     -3.68179050     -4.25716596
    C      0.67421512      5.56254068     -0.93993073
    H     -0.25661846      5.04905527     -1.06151097
    H      0.90071699      6.10662245     -1.83299904
    H      0.60168409      6.24235797     -0.11683487
    C      1.79231872      4.54007425     -0.66423754
    N      2.62479768      3.77880152     -0.45897144
    C      1.05334291      2.36554997     -3.61771905
    H      1.90754737      2.69200263     -3.06214404
    H      1.36993245      1.97693210     -4.56304773
    H      0.54297197      1.60070457     -3.07051515
    C      0.10282573      3.55582915     -3.84433008
    N     -0.60487751      4.44204611     -4.01305230
    C      0.56760249     -4.06237768      3.02850435
    H      0.68926061     -4.77901738      2.24331200
    H      0.22033066     -3.13779083      2.61687280
    H     -0.14593195     -4.42757785      3.73730370
    C      1.91927619     -3.83605046      3.73089612
    N      2.92565870     -3.66753956      4.25385872
    C     -2.79423572      0.35631485     -1.02222184
    H     -3.73586880      0.58701680     -0.56944823
    H     -2.29807332     -0.39848660     -0.44863948
    H     -2.95520588     -0.00060263     -2.01801178
    C     -1.92141270      1.62432300     -1.06621415
    N     -1.27155628      2.56841270     -1.09896843
    C     -2.63102557     -2.60073205     -3.88285327
    H     -1.80288662     -1.92320662     -3.87611942
    H     -3.43240784     -2.17881625     -4.45265376
    H     -2.32964432     -3.52800642     -4.32356936
    C     -3.10329973     -2.84852407     -2.43815391
    N     -3.45492931     -3.03301649     -1.36250957
    C      1.67710670     -0.34874133      4.69640946
    H      1.60578162     -0.93377392      3.80335303
    H      1.34732826     -0.93087590      5.53143318
    H      2.69382257     -0.05172883      4.84797301
    C      0.79108352      0.90363313      4.56179471
    N      0.13139900      1.83608285      4.46156791
    C      2.38457556      4.19557963      3.03050243
    H      2.51755077      4.68696504      3.97164969
    H      1.34847546      3.96824913      2.89008697
    H      2.71881805      4.83767352      2.24253257
    C      3.20334245      2.89140042      3.01213475
    N      3.81295161      1.92037972      2.99845918
    C      4.67695708      1.04559559     -0.60204280
    H      3.94992461      1.01430749      0.18239650
    H      5.03234395      2.04803095     -0.71918641
    H      5.49626103      0.40331736     -0.35482065
    C      4.03266257      0.57226920     -1.91826722
    N      3.55295602      0.21985619     -2.89825612
    C      3.61039687     -3.15120088     -2.20949028
    H      3.18561911     -4.08176305     -1.89561439
    H      3.91697837     -3.22589294     -3.23190310
    H      2.88047163     -2.37494938     -2.11180797
    C      4.83106003     -2.82160755     -1.33031471
    N      5.73989924     -2.57621033     -0.67572853
    C      0.98931352      1.14011659      0.83290931
    H      0.65192337      2.12874733      1.06459301
    H      1.04199655      1.02095940     -0.22912890
    H      1.95913136      0.98551375      1.25770385
    C      0.00326446      0.11123534      1.41661353
    N     -0.73089389     -0.65481352      1.85120786
    C      0.20725051     -3.40254591     -0.65561538
    H      0.94811826     -3.40039149      0.11640180
    H      0.45981189     -4.13834422     -1.39026678
    H     -0.74794539     -3.63405842     -0.23264748
    C      0.15222313     -2.01343973     -1.31815291
    N      0.11125275     -0.97918703     -1.81144222
    C     -6.50369967     -0.36365767     -0.96953799
    H     -7.56269631     -0.49430946     -1.04926507
    H     -6.29458591      0.56963530     -0.48981437
    H     -6.08825257     -1.16266537     -0.39170628
    C     -5.87843580     -0.36888717     -2.37688220
    N     -5.41289843     -0.37278077     -3.42471394
    C     -2.68006726     -0.05823462      4.93123551
    H     -2.36439249      0.62065119      5.69567234
    H     -3.72954642     -0.24245529      5.02898688
    H     -2.48085529      0.36873210      3.97055184
    C     -1.91065242     -1.38469792      5.07299559
    N     -1.33778810     -2.37231014      5.17854241
    C     -3.25022331     -2.95016055      1.94562725
    H     -3.12560184     -3.27616203      2.95710771
    H     -2.29359311     -2.88878616      1.47024223
    H     -3.86603832     -3.64895199      1.41897605
    C     -3.92010539     -1.56355562      1.93203460
    N     -4.41886304     -0.53116522      1.92191426
    C      5.06166720     -1.37032328      2.58742990
    H      4.96574747     -1.86948631      3.52899023
    H      5.24929221     -0.32995811      2.75276677
    H      5.87544256     -1.79674383      2.03894630
    C      3.75844965     -1.53552322      1.78373034
    N      2.78814494     -1.65852209      1.18533948
    C     -3.59117528      2.35910912     -4.37674034
    H     -3.17385034      3.34284958     -4.32201566
    H     -4.05751694      2.11714590     -3.44460390
    H     -4.31955960      2.32372248     -5.15974939
    C     -2.47229693      1.34243291     -4.67013548
    N     -1.63924113      0.58547125     -4.88858150
    C     -3.30617611      5.29226282     -1.38859298
    H     -2.61008902      5.04260835     -2.16192059
    H     -2.77290618      5.53160873     -0.49235874
    H     -3.88956898      6.13612534     -1.69264543
    C     -4.23588327      4.09256608     -1.12787794
    N     -4.92809251      3.19933732     -0.93376374
    C     -2.78524556      2.67314950      2.23913275
    H     -3.07506462      2.69233550      3.26895652
    H     -2.32062333      1.73528777      2.01678020
    H     -3.65090908      2.79737950      1.62261619
    C     -1.79092131      3.81655949      1.96430031
    N     -1.05060172      4.66788021      1.75967506
