120
Energy:   -586.15009860
    C      5.29629437     -4.62090188      0.99009065
    H      5.79991907     -4.11539469      0.19276711
    H      5.86761588     -5.47514679      1.28801088
    H      5.18819743     -3.95640487      1.82175035
    C      3.90475173     -5.07536003      0.51188896
    N      2.86868497     -5.41372477      0.15584607
    C      0.25898718     -1.32216693     -4.85344066
    H      1.16916239     -0.84651631     -5.15383666
    H     -0.55195392     -0.94281118     -5.43941237
    H      0.34272202     -2.37850251     -5.00190851
    C     -0.00435182     -1.03240283     -3.36404839
    N     -0.20041967     -0.81666029     -2.25512814
    C      0.06979959      5.70456325     -1.04997092
    H     -0.03597033      6.23907211     -1.97084724
    H      0.27057659      6.39518872     -0.25774358
    H     -0.83517633      5.17381952     -0.83966457
    C      1.23555131      4.70515812     -1.16749671
    N      2.10350645      3.96105557     -1.25500000
    C      0.17300496      2.54242558     -3.94783014
    H      1.12781363      2.98437238     -4.14257003
    H     -0.07010802      1.85793591     -4.73349487
    H      0.20607366      2.01822266     -3.01561941
    C     -0.89890091      3.64596830     -3.87846685
    N     -1.69698355      4.46760601     -3.82682273
    C      1.18572191     -4.95775666      3.19165925
    H      1.21448032     -5.73609465      2.45799508
    H      0.81735850     -4.05864826      2.74353920
    H      0.53933075     -5.24730826      3.99368010
    C      2.60482183     -4.71483750      3.73823560
    N      3.66140622     -4.53397314      4.14518654
    C     -2.82859120      0.26731521     -0.61837330
    H     -3.62463923      0.40585691      0.08306373
    H     -2.18836801     -0.52052657     -0.28026282
    H     -3.23586575      0.01065398     -1.57396294
    C     -2.01814758      1.57122456     -0.73921011
    N     -1.41473546      2.54204434     -0.82917860
    C     -3.41191519     -2.75970456     -3.42598664
    H     -3.87446448     -1.84113379     -3.72124258
    H     -3.89761239     -3.57735682     -3.91633560
    H     -2.37783958     -2.74265835     -3.70038808
    C     -3.53544517     -2.92948588     -1.90036721
    N     -3.62741886     -3.05589580     -0.76447420
    C      2.73664741     -0.94177878      3.93811768
    H      2.67711052     -1.71590935      4.67437673
    H      1.83185316     -0.37066947      3.94709604
    H      3.56476638     -0.30152869      4.15992366
    C      2.93269148     -1.57106255      2.54629562
    N      3.07865520     -2.03959293      1.51002083
    C      2.26476834      4.15809587      2.32617545
    H      2.93490914      4.68675129      2.97141566
    H      1.53404586      4.83644161      1.93785753
    H      2.81546894      3.72558440      1.51712553
    C      1.55936222      3.04340770      3.12082789
    N      1.03415531      2.21347170      3.71248275
    C      4.66782131      1.85250460     -1.88235002
    H      4.15805311      2.12901927     -0.98314137
    H      5.06300299      2.72883895     -2.35221025
    H      5.46805947      1.18232892     -1.64701505
    C      3.68099375      1.15781457     -2.83899892
    N      2.94625578      0.64058626     -3.55126751
    C      2.98335950     -2.49024099     -2.00620441
    H      2.26127706     -2.08461353     -1.32873597
    H      2.94452928     -3.55895715     -1.97103250
    H      2.76626926     -2.15796026     -2.99986453
    C      4.39095511     -2.01412394     -1.60174531
    N      5.43897401     -1.65963315     -1.30060712
    C      1.53368434      0.80691531      0.07651280
    H      1.03959462      1.14883648     -0.80884896
    H      2.32983767      0.14460292     -0.19252486
    H      1.93170871      1.64521051      0.60918236
    C      0.52607920      0.06151942      0.97134064
    N     -0.22412862     -0.49346170      1.63758063
    C     -0.15985286     -3.65979544     -0.18462813
    H     -0.61566658     -4.43694594      0.39258165
    H     -0.70655645     -2.74960937     -0.05205516
    H      0.85001229     -3.51981546      0.14014420
    C     -0.17042828     -4.05273445     -1.67361675
    N     -0.17830215     -4.34529540     -2.78223646
    C     -6.39975810     -0.61657802      0.30468465
    H     -7.44109892     -0.77222891      0.49516376
    H     -6.08645721      0.29869876      0.76186083
    H     -5.83703622     -1.43001387      0.71280878
    C     -6.16182327     -0.53913179     -1.21485116
    N     -5.98466998     -0.48146955     -2.34621465
    C     -1.10605797     -0.03508681      5.09505021
    H     -1.03337702      0.39402031      4.11756122
    H     -0.49938339      0.52432243      5.77615692
    H     -2.12486505     -0.00930931      5.42103605
    C     -0.61750065     -1.49491432      5.05244316
    N     -0.25374752     -2.58182227      5.02072027
    C     -2.65226476     -2.92808213      2.55163198
    H     -2.72067241     -3.42077585      3.49898275
    H     -1.62278726     -2.80387715      2.28772235
    H     -3.14280510     -3.51858373      1.80626152
    C     -3.32947672     -1.54785047      2.64076406
    N     -3.83369181     -0.52020527      2.70712695
    C      6.38515512     -0.42396735      1.59979714
    H      5.90538152     -1.37873030      1.54371520
    H      6.99875935     -0.38402666      2.47546470
    H      6.99310385     -0.27873680      0.73134706
    C      5.31754547      0.68367137      1.67012553
    N      4.52266156      1.50835875      1.72248821
    C     -4.58796145      2.28621656     -3.71020314
    H     -4.21109888      3.28665208     -3.75496424
    H     -4.86944381      2.05580464     -2.70393423
    H     -5.44210190      2.19793910     -4.34859978
    C     -3.49591196      1.30501001     -4.17524251
    N     -2.68283148      0.57445713     -4.52148546
    C     -3.84625027      5.11317325     -0.78923673
    H     -4.56128153      5.80893110     -1.17595563
    H     -3.13355050      4.87390358     -1.55062241
    H     -3.34143812      5.54863454      0.04768455
    C     -4.56944811      3.82943050     -0.34136463
    N     -5.10790178      2.87362566     -0.00790348
    C     -2.35459052      2.56467402      2.61146838
    H     -2.47424089      2.51548693      3.67361931
    H     -1.70019412      1.78167984      2.28962282
    H     -3.30789499      2.44936712      2.13943661
    C     -1.75217816      3.92835112      2.22535427
    N     -1.30365478      4.94367071      1.93787476
