8
Energy:   -103.27602732
O   -1.49853355   0.00903835   1.47709003
H   -1.32161437  -0.35042659   0.60777052
H   -0.70137677   0.48694323   1.70595643
S    0.97907295  -0.03395102  -1.03718426
O    0.99085626   0.69280488  -2.33787139
O    2.07351888  -1.04493694  -1.02319969
O    1.18434842   0.93565216   0.07539458
O   -0.33243175  -0.71932416  -0.86306052
