8
Energy:   -103.56636891
O   -0.41732909  -1.64515097  -1.15830305
H   -0.13026925  -0.74226271  -1.29476289
H   -0.67214069  -1.67920749  -0.23627102
S    0.32658799   1.12011024   0.74941546
O   -0.46062506   2.26721073   1.28285343
O    0.11501600   1.01387709  -0.72165620
O    1.77384139   1.33835982   1.02856549
O   -0.12188034  -0.13900669   1.40789911
