8
Energy:   -106.58675275
O   -0.59692056   1.97432811  -0.14973060
H   -0.56213386   1.37752481  -0.89729168
H   -0.25132325   1.46294087   0.58189596
S    0.39172090  -1.32945203   0.12337934
O    1.76397963  -1.86186407  -0.10801511
O   -0.10648366  -0.68201392  -1.12270095
O   -0.51798271  -2.44783243   0.49989579
O    0.42737033  -0.32609769   1.22433766
