8
Energy:   -103.12480422
O    1.83067103  -0.92499249  -0.41135419
H    1.19697168  -1.32091462   0.18689546
H    1.45009135  -0.07609537  -0.63666430
S   -1.23571303   0.63780174   0.24494729
O   -0.69745364  -0.54940547   0.96669231
O   -1.75275881   1.62686254   1.23212630
O   -0.15022476   1.26261258  -0.56216277
O   -2.34241491   0.21113731  -0.65686668
