8
Energy:   -104.04340596
O   -0.73520675   1.01459917   1.55964645
H   -1.20250269   0.95715780   0.72623968
H    0.06583378   0.50929520   1.42096042
S    0.51287182  -0.68472263  -1.02841068
O    1.28510406   0.31018930  -1.82459383
O    1.00273837  -0.68267147   0.37875902
O   -0.93284770  -0.32491761  -1.05155055
O    0.69649253  -2.04149075  -1.61625736
