8
Energy:   -105.96588163
O   -1.42975147   0.07283848   1.43770397
H   -1.72110662  -0.14711544   0.55285127
H   -0.49436880   0.25337501   1.34444266
S    0.99850701  -0.04937812  -0.92949830
O   -0.38215140  -0.48548028  -1.28120451
O    1.37091613   1.13403534  -1.75469162
O    1.05155305   0.31528991   0.51421336
O    1.95371026  -1.16135746  -1.19631042
