8
Energy:   -105.11164596
O    1.11162543  -0.65562162  -1.60694882
H    1.39620455  -0.78148615  -0.70173907
H    0.34231802  -0.08998501  -1.54021660
S   -0.77994447   0.42528366   1.06628660
O   -0.56275424   1.72057700   1.76995098
O    0.45624313  -0.40175416   1.15544186
O   -1.91200260  -0.30317463   1.70495157
O   -1.10126418   0.68548641  -0.36519801
