8
Energy:   -103.00516473
O   -1.26681426  -1.49088893  -0.52275346
H   -1.62175021  -0.60385703  -0.58129169
H   -0.32617020  -1.36522184  -0.39773991
S    0.88131425   0.96424381   0.40320578
O    0.92310304   0.96241668   1.89261854
O    1.14427892  -0.41234079  -0.10272349
O   -0.46328715   1.41351697  -0.05537979
O    1.92116217   1.89338237  -0.12169215
