8
Energy:   -104.93577567
O    0.97856060   1.75084817  -0.42570692
H    0.25163030   1.23855350  -0.77976673
H    1.29140012   1.23956318   0.32058453
S   -0.68942860  -1.16975650   0.25207713
O   -0.05241283  -2.37621293  -0.34690014
O   -0.92389615  -0.15238298  -0.81097325
O   -1.99032690  -1.55043664   0.87082285
O    0.20892147  -0.59999342   1.29535907
