8
Energy:   -105.00243766
O   -1.20097121  -1.64516276  -0.38526781
H   -1.01230936  -0.88904739  -0.94108083
H   -0.69251212  -1.49061670   0.41085826
S    0.80350480   1.11068279   0.25399905
O    2.25423514   1.42735486   0.13070958
O    0.62925708  -0.09267509   1.11520027
O    0.09298407   2.26770493   0.86764396
O    0.23754292   0.84034646  -1.09755762
