8
Energy:   -105.07025131
O   -1.20448343   0.19655027   1.68450198
H   -0.56759703   0.90160646   1.56829813
H   -1.08813458  -0.36113793   0.91529546
S    0.79365506  -0.19048679  -1.14785087
O    2.02056389  -1.03573759  -1.12925573
O    0.52771473   0.26837898  -2.54026530
O   -0.36593654  -0.98736496  -0.65751166
O    0.99227813   0.99277642  -0.26437078
