61
Energy:  -1093.38450680
O   -2.24884538  -0.83804283   1.66595770
H   -2.99966125  -0.59542854   1.12406685
H   -2.20947495  -0.15893119   2.33937376
O   -1.39914659   2.19010733   0.80445988
H   -2.06732381   2.37163255   0.14353655
H   -0.75737809   2.89196036   0.69598239
O   -1.37605832   1.86965014  -3.03373645
H   -0.53660839   2.06024478  -2.61513241
H   -1.20654340   1.09488696  -3.56968286
O   -2.07265254  -1.14077627  -1.72166819
H   -2.88823670  -0.92454896  -1.26967254
H   -1.77077556  -1.94545118  -1.30024152
O    3.00503155  -2.09133285   0.50557786
H    3.52438699  -1.28780455   0.53463043
H    2.38889865  -2.00528555   1.23304467
O   -0.59383848  -2.94886787  -0.35936718
H    0.19577318  -3.37852380  -0.68821527
H   -0.73237422  -3.33182062   0.50688156
O    1.87055380  -3.58278845  -1.43566486
H    2.38807005  -3.16481900  -0.74739870
H    2.37387975  -4.36089015  -1.67535756
O   -1.76475201   1.30170218   3.34515929
H   -2.41568769   1.81405948   3.82474724
H   -1.67108471   1.75606726   2.50789550
O    1.78387528   1.43917330   1.55273648
H    2.65924037   1.11626751   1.33896171
H    1.63917164   1.15980742   2.45675385
O    0.84077130   3.80214381   0.59570378
H    1.29505800   3.09659956   1.05620651
H    1.26566334   4.60254437   0.90401781
O   -4.13300633  -0.09127937  -0.21837077
H   -3.95831220   0.78388426  -0.56449564
H   -5.07596391  -0.21040631  -0.33182393
O    0.89011242   2.05570478  -1.52711624
H    1.78881701   1.84601442  -1.78126553
H    0.97584861   2.80638500  -0.93944255
O   -3.29086001   2.34020370  -1.19355489
H   -3.79511834   3.10105735  -1.48175120
H   -2.68032473   2.17112264  -1.91111333
O    1.38191130  -1.00159587  -2.31026656
H    0.74570204  -0.95327836  -3.02380355
H    1.54795518  -1.93778601  -2.19977091
O   -0.75530375  -0.65921369  -4.03296885
H   -1.34093225  -0.90834416  -3.31798275
H   -1.13170015  -1.07637574  -4.80790977
O    0.80677913   0.53141793   3.99389803
H   -0.09864437   0.82948437   3.90673998
H    1.00138966   0.62458437   4.92646363
O    3.33198717   0.88774460  -2.10112873
H    2.74543833   0.15057749  -2.27076647
H    3.80478123   1.01253291  -2.92400509
O    0.94439974  -1.56494907   2.21326756
H    0.30098461  -2.24428926   2.41512327
H    0.92454677  -0.98239852   2.97252546
O    4.12482106   0.43590928   0.49009416
H    5.06197296   0.58422600   0.61650745
H    3.97280511   0.63502181  -0.43374414
O   -1.19981574  -3.28337143   2.32919194
H   -1.74199880  -2.50877576   2.17995748
H   -1.74422030  -3.85712291   2.86832528
K   -0.00416047  -0.15559656  -0.02403353
