61
Energy:  -1084.34725736
O   -2.69771127  -1.55170666   1.35264428
H   -3.42034456  -1.40149942   0.74316026
H   -2.54746440  -0.69934595   1.76147059
O   -1.89474144   1.02974805   1.69336857
H   -2.46766978   1.53841098   1.11956809
H   -1.55002499   1.66935192   2.31651325
O   -0.95917347   1.72170733  -1.66558796
H   -0.26073233   2.37619986  -1.67275440
H   -0.92202264   1.32156629  -2.53434501
O   -2.16549179  -1.31110403  -2.06887642
H   -3.02768991  -1.19357473  -1.67008688
H   -1.85354715  -2.14771676  -1.72391042
O    2.87120238  -2.17261360   0.39207322
H    3.39942820  -1.37546967   0.43415495
H    2.27005808  -2.10158394   1.13356642
O   -0.63963416  -3.14021951  -0.72644369
H    0.19716896  -3.43435812  -1.08626985
H   -0.72588396  -3.61552508   0.09992029
O    1.88811382  -3.27909320  -1.84592604
H    2.34350813  -2.99444506  -1.05357302
H    2.42732856  -3.99123880  -2.18991433
O   -0.57231829   2.74184218   3.38956985
H   -0.86040298   3.45919453   3.95405605
H   -0.13661358   3.17444260   2.65523334
O    1.63769013   0.98137835   1.26172040
H    2.55324894   0.79554217   1.05327659
H    1.54668357   0.73630713   2.18252969
O    0.71229396   3.50481067   1.11266106
H    1.12815560   2.64434868   1.16647655
H    0.82645327   3.76987198   0.20000450
O   -4.39920493  -0.60136829  -0.62505327
H   -4.19996316   0.33352384  -0.57494072
H   -5.34499268  -0.63786490  -0.76783062
O    1.21486569   3.41789393  -1.66669260
H    1.45646562   4.17236485  -2.20394016
H    1.95041931   2.81232224  -1.75875588
O   -3.39142153   1.98402340  -0.43654639
H   -3.78381034   2.84305362  -0.59252704
H   -2.58502539   1.99132501  -0.95220499
O    1.34983432  -0.59002554  -2.26030853
H    0.72829853  -0.45762889  -2.97612711
H    1.56645959  -1.52155502  -2.29978219
O   -0.75811085   0.08194532  -3.90470376
H   -1.36284627  -0.48357368  -3.42437557
H   -1.04628288   0.02265449  -4.81556781
O    0.89325168   0.41344637   3.85996118
H    0.34039760   1.19469420   3.84459810
H    1.32816616   0.44393614   4.71210649
O    3.14873439   1.43620067  -2.01062559
H    2.54455336   0.70575934  -2.14348868
H    3.69733176   1.43959527  -2.79501150
O    0.74810839  -1.82774670   2.13191593
H    0.15462216  -2.56011982   2.29815538
H    0.68326787  -1.28342749   2.91660960
O    4.11022311   0.32963713   0.32590548
H    5.01546535   0.57372489   0.51875129
H    3.91973087   0.75538672  -0.50996642
O   -1.20946030  -3.76235792   1.95059011
H   -1.87590975  -3.08651626   1.82683618
H   -1.65841405  -4.45665090   2.43290706
K   -0.30788272  -0.46670035  -0.02927243
