61
Energy:  -1097.46773986
O   -3.33009728  -0.55841983   2.25852361
H   -3.33312771  -0.36662124   1.32074114
H   -4.25424589  -0.66228848   2.48522274
O   -1.23493714   2.68505791   0.62901290
H   -1.89700741   2.84401267  -0.04376358
H   -0.56012220   3.34301538   0.46183452
O   -1.21899649   1.69796470  -3.14449971
H   -0.36417042   1.87953584  -2.75394094
H   -1.12348225   0.83092098  -3.53863682
O   -2.92211727  -1.96846622  -2.33310391
H   -3.67639655  -2.52141567  -2.53692128
H   -2.36080115  -2.51970043  -1.78785451
O    2.04312306  -1.66145203   0.93006064
H    2.84487008  -1.13858572   0.92339821
H    1.85711377  -1.80374443   1.85816907
O   -1.21269592  -3.23563075  -0.69234560
H   -0.31745609  -3.53843319  -0.84429355
H   -1.21620882  -2.94503984   0.21967218
O    1.51607483  -3.55216579  -0.98208318
H    1.79070567  -3.02877613  -0.22917348
H    2.08666029  -4.32043012  -0.96125002
O    1.15555655   0.80805463   4.12750200
H    1.18814576   1.29460064   4.95117837
H    0.26876008   0.95343387   3.79782222
O    1.92383936   1.61794973   1.59682857
H    1.80257776   1.40549218   2.52224159
H    2.75700283   1.20838664   1.36374369
O    1.22536266   3.95208906   0.32047651
H    1.66954788   4.75041408   0.60614850
H    1.56919109   3.26762337   0.89451534
O   -2.78650698  -0.02103899  -0.38264815
H   -3.03739002   0.82690783  -0.74908469
H   -2.95728139  -0.64670365  -1.08664508
O    1.03960886   2.01419786  -1.61925203
H    1.18992591   2.80936690  -1.10803502
H    1.91704712   1.69083442  -1.82362920
O   -3.09573006   2.52095123  -1.41165525
H   -3.75577223   3.08782733  -1.81068867
H   -2.49340170   2.31403902  -2.12623186
O    1.08767661  -1.08564952  -2.11501786
H    0.44292402  -1.10429003  -2.82225083
H    1.22715791  -2.00626377  -1.89310295
O   -0.96012157  -0.94016530  -3.94127551
H   -1.70382876  -1.32702834  -3.47924903
H   -1.08119241  -1.20322968  -4.85361910
O   -1.17978263   1.07370412   2.80710744
H   -1.31389269   1.79902967   2.19706713
H   -2.00737972   0.59293139   2.79397404
O    3.31352527   0.48801593  -2.02276865
H    2.60851152  -0.14624022  -2.15279402
H    3.78718411   0.49421362  -2.85453829
O    1.12146054  -1.86484513   3.52443309
H    1.33780694  -2.41869166   4.27455315
H    1.17792894  -0.97090452   3.86194362
O    4.06289693   0.19069575   0.60674503
H    5.01188612   0.21833220   0.72875971
H    3.93823276   0.31394705  -0.33426496
O   -1.01387625  -1.96733774   1.72204599
H   -1.83391477  -1.64455295   2.09564826
H   -0.42154638  -2.04036425   2.47040707
K   -0.05020123   0.14580851   0.17079676
