61
Energy:  -1090.79205684
O   -1.76952073  -0.18357055   2.14257043
H   -2.63037797  -0.10940650   1.73067681
H   -1.70136900   0.59322468   2.69770678
O   -0.90062939   2.85122465   0.94334088
H   -1.46510603   2.54857274   0.23200425
H   -0.27371235   3.43731618   0.51942627
O   -0.90408332   2.03676892  -3.99097223
H   -1.34209552   2.47628674  -4.71980777
H   -1.37335942   1.20821917  -3.89341658
O   -3.29634598  -2.08251757  -1.31241264
H   -2.48521484  -2.32258974  -0.86445787
H   -3.67898332  -2.91806130  -1.58015728
O    3.15623844  -2.72112450   0.64275382
H    2.60112854  -2.30893516   1.30470909
H    3.88141587  -3.09983492   1.13967230
O   -0.95886171  -2.50397435   0.02165795
H   -0.24300015  -3.01821170  -0.35161677
H   -0.97668856  -2.75286736   0.94576094
O    1.28324568  -3.61254889  -1.15152004
H    1.51478020  -4.46105476  -1.52922548
H    2.00527200  -3.40953325  -0.55679783
O   -1.01887399   2.08712792   3.52872695
H   -1.49670239   2.71326693   4.07265877
H   -0.98101011   2.49902679   2.66551348
O    2.19587180   1.97159695   1.23485890
H    2.74289492   1.31102210   0.80984311
H    2.13511814   1.68311135   2.14552727
O    1.27083234   4.08643289  -0.22347359
H    1.74837939   3.47649180   0.33880083
H    1.74773733   4.91228101  -0.14120348
O   -2.17968418   1.23217934  -0.85352418
H   -2.16700233   0.82972740  -1.72191549
H   -2.94330347   0.84851689  -0.42233914
O    0.92648439   1.98488802  -1.97463736
H    0.27978913   2.13378818  -2.66445315
H    1.03653393   2.84061404  -1.56008469
O   -4.05283595  -0.19764101   0.54442668
H   -4.99980384  -0.06770496   0.59541950
H   -3.94268579  -0.92025171  -0.07358025
O    0.58892688  -1.21285126  -2.35137068
H    0.87836021  -2.09211787  -2.10775126
H    1.36346225  -0.80349816  -2.73706078
O   -1.92645151  -0.37522225  -3.05954636
H   -2.51523191  -1.01553047  -2.66007813
H   -1.05219441  -0.74661111  -2.94132333
O    1.49544152   0.95900182   3.72006994
H    1.90337498   1.15398912   4.56375358
H    0.63315385   1.37163070   3.76935720
O    2.79397859   0.29976943  -3.01153561
H    2.22672436   1.03219101  -2.77067648
H    3.24486796   0.59542918  -3.80243126
O    1.37559176  -1.33771190   2.18823354
H    1.47717411  -0.63906829   2.83461577
H    0.65841066  -1.87440480   2.52564110
O    3.04482739  -0.12363561  -0.29521095
H    3.28853545  -1.02726454  -0.09447983
H    3.18435372  -0.04135550  -1.23860601
O   -0.94255833  -2.68069588   2.77772121
H   -1.39077547  -3.12031591   3.50026358
H   -1.36937592  -1.82622900   2.71491249
K    0.22083182   0.19390825   0.07565238
