61
Energy:  -1087.12216170
O   -2.24739448  -0.71206884   2.27837448
H   -2.80751020  -0.55072607   1.51911778
H   -2.27576322   0.10538344   2.77556542
O   -1.54791013   2.64636244   0.74184176
H   -2.20795268   2.73340770   0.05409268
H   -0.88517234   3.30133742   0.52271109
O   -1.60439044   1.84496218  -3.24041625
H   -1.47183150   0.89718902  -3.26006338
H   -0.81550884   2.18898680  -2.82143567
O   -2.68982831  -2.49139646  -1.72248518
H   -2.04035294  -2.72808088  -1.06037184
H   -3.18094761  -3.29849433  -1.87619505
O    3.37432140  -2.17693857   0.91954294
H    4.20292515  -2.39927771   1.34405793
H    2.74472062  -2.11811310   1.63813481
O   -0.56540801  -2.63423659   0.01659593
H    0.25852977  -3.02906778  -0.26882780
H   -0.67737788  -2.93741339   0.91758340
O    1.88633331  -3.46624631  -0.97023440
H    2.47588358  -3.07344660  -0.32651806
H    2.12714298  -4.39258044  -0.98238476
O   -1.92526542   1.83508527   3.32182714
H   -2.42920204   2.42220983   3.88535574
H   -1.92210773   2.26660832   2.46742106
O    2.47181940   2.53420484   1.72341549
H    2.60953037   1.77412046   1.15813744
H    3.31158766   2.66000038   2.16522609
O    0.78704479   4.14527046   0.26533039
H    1.41734975   3.71880828   0.84591416
H    0.99720495   5.07714121   0.32600532
O   -3.13922698  -0.14752836  -0.23368784
H   -3.43518791   0.64393586  -0.68338036
H   -3.26587821  -0.84845188  -0.87313880
O    0.59114218   2.16045253  -1.63159366
H    1.41245439   1.87265903  -2.03015735
H    0.82593943   2.94715273  -1.13945050
O   -3.39294702   2.39159289  -1.32472445
H   -4.12873776   2.90350127  -1.66057210
H   -2.82758790   2.25652690  -2.08522304
O    1.69126629  -1.78964188  -3.15969634
H    1.84240993  -2.29990816  -3.95531922
H    1.81040971  -2.41657500  -2.44625990
O   -0.77965259  -0.70423097  -2.54811491
H   -1.43073149  -1.40174004  -2.47189658
H    0.00319628  -1.14213847  -2.88220548
O    0.54715162   0.78753708   2.65636361
H   -0.20351800   1.19296947   3.09035848
H    1.17715417   1.50040834   2.55080226
O    2.79611705   0.68813943  -2.55705758
H    2.44248126  -0.14207539  -2.87630188
H    3.47934233   0.91622122  -3.18746520
O    1.44854639  -1.80444828   2.74071051
H    0.65770581  -2.32535319   2.88021354
H    1.16625760  -0.89944337   2.87303967
O    2.47090113   0.29922617   0.13174848
H    2.89059716  -0.52162646   0.38921315
H    2.72188817   0.42017256  -0.78400767
O   -0.99429202  -3.08060948   2.69802292
H   -1.42641299  -3.64738735   3.33698001
H   -1.52636077  -2.28502881   2.68438145
K   -0.39053354   0.17480173   0.09401644
