61
Energy:  -1092.54834273
O   -2.95628552   0.15621957   2.94815115
H   -2.60571743   1.02327066   3.15200467
H   -3.56408025  -0.03115840   3.66348807
O   -1.09476328   2.39596754   0.53668080
H   -1.85845617   2.55718891  -0.01740646
H   -0.44031387   3.02461238   0.23215906
O   -1.62772184   0.98773325  -2.73314546
H   -0.76666504   1.40335201  -2.77868743
H   -1.57584628   0.25969460  -3.35241964
O   -2.39627501  -2.11564002  -1.61272122
H   -2.91422013  -1.57409438  -1.01716012
H   -1.86250733  -2.66286249  -1.03663835
O    2.99969397  -2.64012400   0.91175661
H    2.30231397  -2.84803678   1.53358075
H    3.80784228  -2.86030413   1.37505874
O   -0.34450449  -3.01485494  -0.03408627
H    0.35477956  -3.41300751  -0.55245698
H   -0.10705965  -3.20301967   0.87390372
O    1.92651489  -3.71680040  -1.40817583
H    2.44711727  -3.42427452  -0.66008919
H    2.30784529  -4.56061300  -1.65066144
O   -1.63182695   2.55293305   3.18819043
H   -1.91554916   3.43864190   3.41458253
H   -1.46911755   2.58664711   2.24552354
O    2.54844242   2.33849570   1.57423779
H    2.55254627   1.48750346   1.13602870
H    3.42786953   2.42298373   1.94261476
O    1.12070105   3.87701229  -0.18604784
H    1.69050984   3.45735072   0.45849382
H    1.41695580   4.78684382  -0.21196237
O   -3.11325879  -0.15690059   0.19881605
H   -3.41291943   0.67784699  -0.16122817
H   -3.22749119  -0.06510661   1.14473183
O    0.85703803   1.88607792  -2.06800705
H    1.03608407   2.67035198  -1.54926958
H    1.72240806   1.54223644  -2.28968157
O   -3.32859039   2.30728276  -1.07838528
H   -4.04020186   2.79570282  -1.49225341
H   -2.85486708   1.90860081  -1.80836527
O    1.02286810  -1.38704333  -2.59236762
H    0.31624463  -1.52087766  -3.22403485
H    1.30495145  -2.27093014  -2.35698508
O   -1.34189884  -1.45820820  -4.01313384
H   -1.83263568  -1.79562242  -3.26376020
H   -1.77817240  -1.83738246  -4.77610443
O    0.85009389   1.32791903   3.50335160
H    1.43506011   1.79813339   2.90926001
H    0.07474307   1.88550053   3.56789476
O    3.11048265   0.33847728  -2.40587524
H    2.46559017  -0.32399495  -2.65381893
H    3.78272667   0.28507482  -3.08518961
O   -0.41548426  -0.69978050   2.29776766
H   -1.31776411  -0.54850011   2.57925863
H    0.09446515  -0.03318934   2.75802810
O    2.34999438  -0.03452333   0.22058119
H    2.64253374  -0.90150360   0.50164660
H    2.75527960   0.08892807  -0.63775178
O    0.80416837  -3.10491834   2.49003001
H    0.38186499  -2.25049638   2.57865735
H    0.59130050  -3.56330478   3.30292668
K   -0.39040646  -0.18473685  -0.43795995
