61
Energy:  -1086.30017352
O   -2.38089325  -1.32278169   1.66185152
H   -3.15039551  -1.47059326   1.11207897
H   -2.37173927  -0.37759582   1.81275455
O   -2.15270158   1.34477116   1.26665122
H   -2.87247332   1.67364406   0.72813185
H   -1.81086458   2.12098125   1.71035969
O   -1.72524890   1.36832847  -2.11487848
H   -0.92284503   1.86366509  -1.95049629
H   -1.53538556   0.85833422  -2.90233617
O   -2.24277146  -1.79766075  -1.82153703
H   -3.07144520  -1.67894816  -1.35738296
H   -1.78430100  -2.47524076  -1.32462455
O    2.27794735  -1.44945725   0.57178113
H    3.00452329  -0.83497545   0.46818883
H    2.16347844  -1.52828414   1.51883712
O   -0.48043917  -3.10672762  -0.22850061
H    0.34832692  -3.40341630  -0.60447195
H   -0.44130768  -3.38333225   0.68702681
O    1.99400372  -3.26554092  -1.42545468
H    2.26662785  -2.71090131  -0.69450814
H    2.69854207  -3.90720245  -1.51561040
O   -0.64012901   3.19535197   2.64235019
H   -0.77624140   3.84003422   3.33667725
H   -0.04019699   3.62347872   2.03159582
O    2.98267884   2.25531163   1.59380319
H    2.26240104   1.68561050   1.86375199
H    3.55565684   1.68911035   1.07674983
O    1.21082257   4.11454017   0.81458748
H    1.94120861   3.57167411   1.11134414
H    1.59369316   4.98229504   0.68557798
O   -4.40457661  -1.15583095  -0.25143632
H   -4.41619200  -0.21110423  -0.40502133
H   -5.32555434  -1.41503550  -0.28050284
O    0.68299581   2.19651718  -1.11086246
H    1.53109354   2.03316195  -1.52350900
H    0.84479119   2.92332937  -0.50936589
O   -4.07000913   1.55232173  -0.74414658
H   -4.63620238   2.23647672  -1.10134261
H   -3.31099219   1.54027960  -1.32722472
O    1.14915228  -0.82636267  -2.48318503
H    0.46542611  -0.85985235  -3.15223571
H    1.41496250  -1.73839558  -2.36582764
O   -1.14263837  -0.61605640  -3.98850922
H   -1.63934272  -1.13320319  -3.35441471
H   -1.50737439  -0.86340973  -4.83822435
O    0.76967149   0.78095639   2.15439109
H    0.23970381   1.42988280   2.61727404
H    0.92468681   0.09236447   2.80095374
O    2.96550969   1.19263422  -2.32325657
H    2.39237003   0.44449637  -2.49068576
H    3.26750533   1.46243002  -3.19057469
O    1.46471674  -1.67921608   3.24343640
H    0.74193692  -2.29102288   3.10374528
H    1.90511236  -2.00339789   4.02905062
O    4.23532154   0.40893710  -0.02538753
H    5.18639586   0.38825071  -0.13150802
H    3.90613522   0.71476607  -0.87057204
O   -0.67292033  -3.25189182   2.54710620
H   -1.35573725  -2.60987049   2.35268008
H   -1.12703860  -3.94958502   3.01958122
K   -0.31744338  -0.26312630  -0.16147446
