61
Energy:  -1085.68183311
O   -2.97233762  -1.37531827   1.72882864
H   -3.58085265  -1.31313723   0.99257133
H   -2.55879256  -0.51313441   1.77185553
O   -1.68620856   1.03892480   1.37798665
H   -2.39108181   1.43351208   0.86448259
H   -1.42740605   1.72285841   1.99563374
O   -1.40383394   1.39158541  -1.94145882
H   -0.62841221   1.95240159  -1.92052530
H   -1.32260823   0.90017887  -2.75886560
O   -2.60518468  -1.79197130  -2.35102148
H   -3.33652311  -1.51729569  -1.79791276
H   -1.99310616  -2.21343341  -1.74772932
O    2.63764171  -1.81407339   0.19684491
H    3.37508419  -1.21585379   0.31744239
H    2.20356776  -1.83490935   1.04970921
O   -0.63552491  -2.57939512  -0.62482364
H    0.07827648  -3.06561820  -1.03750577
H   -0.79705322  -3.04198977   0.19745772
O    1.72733233  -3.31166180  -1.86757123
H    2.20197827  -2.94248700  -1.12282090
H    2.22064311  -4.09817448  -2.10053931
O   -0.54869286   2.91320278   3.04785641
H   -0.99874522   3.61586674   3.51684263
H    0.01068622   3.36585791   2.41664312
O    2.17546840   1.30777690   1.50038017
H    3.04529976   0.96919918   1.28827080
H    2.00375735   0.98982480   2.38675121
O    1.27141351   3.81674260   1.17023028
H    1.72378014   2.98996669   1.33767541
H    1.93463029   4.48906897   1.32628347
O   -4.47324866  -0.83169171  -0.53640972
H   -4.31420765   0.11214022  -0.52549730
H   -5.42424387  -0.91400717  -0.60757240
O    1.00411830   2.45924041  -1.25888715
H    1.89572624   2.25633555  -1.54190083
H    1.11540972   3.09703589  -0.55386021
O   -3.62382564   1.79042215  -0.45133897
H   -4.08265837   2.59251550  -0.70104006
H   -2.91237339   1.71311378  -1.08702046
O    1.37416457  -0.66587444  -2.63896226
H    0.63222185  -0.59584555  -3.23966918
H    1.53076084  -1.60684264  -2.55966346
O   -1.00962011  -0.38406095  -4.00042612
H   -1.62007254  -0.94881716  -3.52647454
H   -1.28319666  -0.44942715  -4.91536600
O    0.95094123   0.72772729   3.94322338
H    0.37181687   1.47137779   3.77639782
H    1.10238838   0.74873990   4.88813294
O    3.34318650   1.16931501  -2.08651843
H    2.73764483   0.49151549  -2.38674991
H    3.80182206   1.44935867  -2.87864268
O    0.82114850  -1.46471567   2.21228464
H    0.16508236  -2.15028375   2.33800443
H    0.72237316  -0.89520269   2.97525924
O    4.42731050   0.27753561   0.29964799
H    5.38434015   0.29015701   0.31256320
H    4.19453072   0.61348766  -0.56590480
O   -1.17346654  -3.35304632   1.98656612
H   -1.89868347  -2.72864076   1.96631893
H   -1.52773816  -4.11769196   2.44048297
K    0.29683647  -0.05800846  -0.14623855
