61
Energy:  -1086.71431244
O   -3.05145302  -0.64633907   2.56653596
H   -3.05330194  -0.50762277   1.61944240
H   -3.97434838  -0.60445938   2.81701967
O   -1.32317707   2.49565061   0.59867271
H   -2.02950384   2.58391414  -0.04128345
H   -0.72487026   3.21493992   0.39647549
O   -1.48593247   1.23221811  -3.06782434
H   -0.64377053   1.58461666  -2.78005640
H   -1.27558325   0.36952329  -3.42523545
O   -2.57592297  -2.42193893  -1.82938289
H   -3.18714154  -3.15855916  -1.83524372
H   -1.90913083  -2.66846570  -1.18841125
O    3.49458468  -2.04795238   1.08464630
H    4.22141910  -2.31095719   1.64924530
H    2.74841993  -1.96262408   1.67810151
O   -0.61793147  -2.66729725   0.03301720
H    0.22849884  -3.09134784  -0.10829334
H   -0.83301167  -2.85907202   0.94581224
O    1.94458630  -3.45671641  -0.69019343
H    2.58011944  -3.05903478  -0.09506421
H    2.33329934  -4.29821237  -0.92897903
O   -1.83756605   1.77447448   3.20632028
H   -1.82758170   2.16632257   2.33305787
H   -2.32373596   0.95719880   3.09709051
O    2.51715240   2.89343227   1.73926064
H    2.80126139   2.10884983   1.27027841
H    3.29092475   3.17448430   2.22764365
O    0.81763150   4.15428391  -0.01454558
H    1.44628791   3.84794524   0.63904419
H    0.92125346   5.10584469  -0.01968413
O   -2.70352979  -0.25767128  -0.10604846
H   -3.04598868   0.53650296  -0.51622040
H   -2.83368379  -0.94207189  -0.76246874
O    0.79253962   2.03361067  -1.78228117
H    0.87845661   2.87111028  -1.32682041
H    1.67650481   1.83745658  -2.09270180
O   -3.29687400   2.14949231  -1.30532155
H   -4.01460744   2.64540126  -1.69923129
H   -2.74095386   1.90354830  -2.04471062
O    1.30770738  -1.16344049  -2.09243896
H    0.61891155  -1.32404413  -2.73741852
H    1.54124558  -2.03355085  -1.76902016
O   -0.89077389  -1.39326413  -3.72834129
H   -1.55742339  -1.80062146  -3.17528587
H   -1.08717480  -1.70659376  -4.61122468
O    0.69829202   1.03502400   2.72555460
H    1.25024584   1.80981808   2.61938041
H   -0.13039926   1.37512242   3.06295004
O    3.18853374   0.79728519  -2.38700857
H    2.62057147   0.03057457  -2.46320265
H    3.78938597   0.72550357  -3.12866607
O    1.19529501  -1.58758580   2.40303375
H    0.40250310  -2.04119633   2.68930340
H    1.10256427  -0.70024622   2.74982090
O    2.90904761   0.56176152   0.33590438
H    3.26767712  -0.28966492   0.58628356
H    3.18021883   0.67800335  -0.57469205
O   -1.28457362  -2.74725998   2.72552877
H   -1.93732112  -2.04920425   2.77910818
H   -1.54295604  -3.37009641   3.40489992
K    0.09654231   0.12445485   0.13220814
