61
Energy:  -1087.60974477
O   -2.16666262  -0.26026238   1.92171917
H   -2.97407170  -0.18137302   1.41368482
H   -2.14173308   0.53262480   2.45738724
O   -1.34902187   2.56951712   0.39166484
H   -2.07183880   2.57890522  -0.23577391
H   -0.74211637   3.23548720   0.06858372
O   -1.46196837   0.42444568  -2.26428275
H   -0.70133706   0.98788591  -2.40643398
H   -1.32468193  -0.31726122  -2.85356634
O   -1.97928734  -3.54966124  -2.04313017
H   -1.57804241  -3.30813578  -1.20832492
H   -2.68075960  -4.15611660  -1.80568456
O    3.53385066  -1.93877774   1.22780907
H    4.25372938  -2.15087512   1.82196492
H    2.77723868  -1.81704061   1.80135091
O   -0.58218356  -2.70932178   0.15354185
H    0.27737107  -3.11867049   0.05438878
H   -0.82027892  -2.86930174   1.06674985
O    2.00879970  -3.50067564  -0.43792799
H    2.64026941  -3.05972837   0.13044105
H    2.39343933  -4.36182504  -0.60134743
O   -1.84251882   2.24404808   3.04533675
H   -2.42530514   2.88314434   3.45539518
H   -1.78752374   2.52149488   2.13088027
O    2.49124541   2.99226091   1.47463987
H    2.74922848   2.17338031   1.05142462
H    3.28399183   3.29291787   1.91892622
O    0.81196363   4.14543325  -0.37337178
H    1.43480662   3.87178804   0.29999050
H    0.98601552   5.07861674  -0.49627970
O   -4.35801562   0.22205379   0.39652175
H   -4.14835754   0.89980388  -0.24607466
H   -5.30418364   0.10070952   0.31731634
O    0.78574805   1.90821952  -1.98333204
H    0.88840048   2.77093505  -1.58156565
H    1.66775965   1.66996912  -2.26885637
O   -3.40802610   2.09091236  -1.39995207
H   -3.83762502   2.55313104  -2.11969543
H   -2.81902979   1.47117224  -1.83034420
O    1.37844729  -1.34660883  -2.03781901
H    0.70582597  -1.58129792  -2.67714165
H    1.61712289  -2.17655194  -1.62495070
O   -0.76026510  -1.81629302  -3.70602606
H   -1.24046285  -2.47732121  -3.20734409
H   -0.88116032  -2.07103015  -4.62075290
O    0.69311997   1.25774602   2.66425078
H    1.28067695   1.97666671   2.43152416
H   -0.09812314   1.68925870   2.98668372
O    3.18918047   0.63380079  -2.45911766
H    2.63630566  -0.14746414  -2.47277047
H    3.81719527   0.49579770  -3.16819058
O    1.22221771  -1.39527275   2.48108234
H    0.45414268  -1.87499162   2.79118296
H    1.08231959  -0.49759798   2.78247971
O    2.84212880   0.57207796   0.26296184
H    3.22111391  -0.24715136   0.58149827
H    3.11447986   0.62220874  -0.65330431
O   -1.21960312  -2.63216542   2.83989311
H   -1.69881567  -1.82855558   2.63790693
H   -1.73970574  -3.05667893   3.52217853
K   -0.00240819   0.03376516   0.13271699
