61
Energy:  -1087.40129131
O   -1.77924444  -0.46509931   3.63863716
H   -2.04289215  -0.00159465   2.84372512
H   -2.36322289  -0.12785488   4.31795094
O   -1.92470058   3.56394167   0.83383779
H   -2.36909979   3.46925186  -0.00864368
H   -2.29459346   4.36171361   1.21195292
O   -0.94918340   1.40413891  -2.28591260
H   -0.16054108   1.91350151  -2.47252687
H   -0.96732366   0.73173713  -2.96692553
O   -2.51251555  -1.57513980  -1.81287561
H   -2.04466813  -1.97708158  -1.08089648
H   -3.12656171  -0.96752629  -1.40058325
O    3.42938303  -2.44538491   0.74683229
H    4.26808677  -2.81345027   1.02492541
H    2.85646063  -2.55316411   1.50602621
O   -0.73578454  -2.33338214   0.15852322
H   -0.02983865  -2.89033504  -0.16961656
H   -0.91134317  -2.66276570   1.03995245
O    1.54384379  -3.45052847  -0.97039814
H    2.26956486  -3.20565569  -0.39629179
H    1.74346759  -4.34685123  -1.24056048
O   -2.14105339   0.85443859   1.27172701
H   -2.87790271   0.62824409   0.70416998
H   -2.11336671   1.81115655   1.25923578
O    2.49951143   2.16750703   2.33973307
H    2.86375761   1.55105749   1.70447994
H    3.26508534   2.56335191   2.75618869
O    0.72832363   2.85737094   0.32653137
H   -0.08090160   3.28634185   0.60468661
H    1.28947508   2.87778768   1.10172428
O   -4.06981685   0.39943296  -0.61628551
H   -5.02340995   0.31654763  -0.62098430
H   -3.90075015   1.24891414  -1.02375331
O    1.39839294   2.69782656  -2.35765712
H    1.34413603   2.98389308  -1.44581614
H    2.20442622   2.18330543  -2.40020358
O   -3.12130053   2.82715258  -1.54695444
H   -3.42328173   3.39025660  -2.25966270
H   -2.35318586   2.38052126  -1.90297715
O    1.34324970  -1.04582946  -2.29670641
H    0.64719970  -1.07402974  -2.95317498
H    1.43609339  -1.95315743  -2.00624496
O   -0.91290847  -0.86603015  -3.85518438
H   -1.55243939  -1.21860277  -3.23637536
H   -1.22930328  -1.14732935  -4.71366963
O    0.76237758   0.01922593   2.61605825
H    1.26275215   0.80013044   2.85279709
H    0.00194938   0.03614309   3.19717323
O    3.39295443   0.77313715  -2.30361230
H    2.75801176   0.07929433  -2.48154992
H    4.04750141   0.68284205  -2.99617775
O    1.62405288  -2.55228227   2.72311531
H    0.77939097  -2.98526165   2.84683663
H    1.42739101  -1.61811366   2.79300788
O    3.00616518   0.27794241   0.37036606
H    3.27430681  -0.63038736   0.50917868
H    3.32831734   0.49214023  -0.50517327
O   -1.14324876  -3.03814282   2.79255480
H   -1.41240371  -2.20613221   3.18184364
H   -1.67057310  -3.69652006   3.24499297
K    0.22817858   0.20191495  -0.07563172
