61
Energy:  -1090.16135730
O   -3.06611218  -0.29812992   2.21558477
H   -3.23566231  -0.22291819   1.27652791
H   -2.76209209   0.57165040   2.47497992
O   -1.14486926   2.28475830   0.15538365
H   -1.78877546   2.41223535  -0.54129866
H   -0.45747474   2.92359512  -0.03331757
O   -0.96207723   1.75097164  -3.90847684
H   -0.94454230   1.91322563  -4.85166188
H   -0.98499997   0.79731868  -3.82940455
O   -2.86128182  -2.51104146  -2.14483779
H   -3.45424785  -3.22632391  -2.37504235
H   -2.23929581  -2.90282437  -1.53175428
O    2.79538123  -2.39311133   1.97938366
H    3.62504061  -2.59343451   2.41270546
H    2.22265755  -2.09230063   2.68488515
O   -0.86732203  -3.08518533  -0.37452249
H   -0.00524851  -3.50074207  -0.39385361
H   -0.95758392  -2.76133426   0.52169463
O    1.82947001  -3.75969595  -0.25798367
H    2.16752467  -3.37972537   0.55292523
H    2.20774494  -4.63849485  -0.28718008
O   -1.81940651   2.10237259   2.78519998
H   -2.41130453   2.82204356   3.00420288
H   -1.59544990   2.24712514   1.86589482
O    1.92726645   2.26855772   1.72925844
H    2.20510314   1.43357982   1.35262796
H    1.51981075   2.03222808   2.56254111
O    1.10721383   3.76151589  -0.36187878
H    1.48903276   3.34734975   0.41201563
H    1.42682337   4.66334248  -0.33376473
O   -2.93810922  -0.22021244  -0.57945197
H   -3.13979283   0.53838157  -1.12725732
H   -3.14982039  -0.97548567  -1.12806165
O    1.17647772   1.66034623  -2.14085411
H    0.54250499   1.83782814  -2.83569985
H    1.21665309   2.47442975  -1.63897183
O   -2.88153058   2.19505143  -1.99147475
H   -3.60006302   2.74510461  -2.30353963
H   -2.28974482   2.12547198  -2.74059434
O    1.46959883  -1.83481664  -2.22584517
H    1.70786435  -2.57405553  -1.66639253
H    2.27313336  -1.31968768  -2.29799958
O   -0.91638475  -0.86540847  -3.21096750
H   -1.61412058  -1.50001852  -3.04766825
H   -0.10851444  -1.37441225  -3.14394090
O    0.55992601   1.39317268   3.97426901
H    0.66345494   1.94196866   4.75165988
H   -0.30454754   1.62163118   3.63261999
O    3.43328866   0.09422495  -2.04347715
H    2.75988312   0.75261502  -2.21458924
H    4.19664474   0.39851812  -2.53431828
O   -0.71371774  -1.50021511   1.82381186
H   -0.18159604  -1.49239373   2.61943562
H   -1.56587744  -1.16432355   2.10171932
O    2.35338437  -0.12696954   0.49251164
H    2.63286372  -0.90187185   0.98000478
H    2.92882314  -0.10398035  -0.27206247
O    1.07907734  -1.31782750   3.88613101
H    0.87136957  -1.66245012   4.75464962
H    0.96914671  -0.37076827   3.97113647
K   -0.17538370  -0.24944157  -0.56103649
