61
Energy:  -1097.51891596
O   -2.67270329  -0.86445540   2.33279375
H   -2.93356796  -0.59805519   1.45119725
H   -2.46808866  -0.04370652   2.78082945
O   -1.33099426   2.34457288   0.75904072
H   -1.99489165   2.50892731   0.08936936
H   -0.66974972   3.02097711   0.61253194
O   -1.34281479   2.13671532  -3.41165062
H   -0.51047493   2.22015837  -2.94637709
H   -1.19727274   2.58309850  -4.24579174
O   -2.88861917  -2.22595763  -2.12881021
H   -2.22478052  -2.62443335  -1.56598945
H   -3.41758338  -2.96274759  -2.43470116
O    3.01374776  -2.25846246   0.83375982
H    3.50198964  -1.44223365   0.72595335
H    2.28747930  -2.02889973   1.41347262
O   -0.82937884  -2.81777925  -0.41757707
H   -0.00874499  -3.26097607  -0.63291054
H   -1.03254700  -3.10774010   0.47173573
O    1.71752076  -3.67987006  -1.05166139
H    2.25784427  -3.29956851  -0.35909148
H    2.14434906  -4.51091928  -1.26000399
O   -1.79376826   1.56507403   3.32916282
H   -2.41453797   2.14691269   3.76772934
H   -1.69297404   1.93794963   2.45335681
O    1.77421899   1.46527083   1.36457737
H    1.57859333   1.23691003   2.27332035
H    2.63416522   1.07855227   1.19973477
O    0.94805810   3.82931101   0.31404661
H    1.37714043   3.11946478   0.79178978
H    1.39817558   4.62183649   0.60650084
O   -2.89419936  -0.15842660  -0.30747551
H   -3.17913132   0.66159139  -0.71073241
H   -3.10953730  -0.83109155  -0.95352758
O    0.87367528   2.08870591  -1.80654167
H    1.77609272   1.82001409  -1.97881854
H    0.95344906   2.81541058  -1.18866764
O   -3.13144135   2.40001274  -1.34975651
H   -3.89101025   2.93316059  -1.58436319
H   -2.59500270   2.38462310  -2.14236523
O    1.67942945  -1.14045195  -2.10462441
H    0.87249293  -1.07211920  -2.61493405
H    1.75230690  -2.07142781  -1.89437533
O   -0.84709192  -0.54276082  -2.90717351
H   -1.62514227  -1.09922673  -2.87231393
H   -1.16125344   0.28677678  -3.26689806
O    0.75895501   0.68774491   3.83345197
H   -0.13646756   1.02314698   3.78922850
H    0.99625848   0.75829158   4.75808275
O    3.39095032   0.93600604  -2.08515568
H    2.88863296   0.12813355  -2.19122714
H    3.94351198   0.97924743  -2.86556432
O    0.72726218  -1.43621794   2.08240074
H    0.08500912  -2.10955691   2.30680546
H    0.72850124  -0.84528328   2.83541238
O    4.09745319   0.28745712   0.49374587
H    5.02764189   0.42820984   0.67029474
H    3.98526185   0.54470883  -0.42138609
O   -1.36030963  -3.21355819   2.26604996
H   -1.94185982  -2.46167516   2.37875820
H   -1.72014394  -3.88438298   2.84634748
K   -0.10602185  -0.06875482  -0.17156478
