61
Energy:  -1095.62653859
O   -2.01793418  -0.44554627   2.11228335
H   -2.81785428  -0.43530213   1.58668395
H   -2.02095147   0.39494920   2.57031186
O   -1.50199688   2.30271068   0.31779270
H   -2.20884901   2.23275833  -0.32384473
H   -0.92222720   2.97698587  -0.03639925
O   -1.73859196   0.88634625  -3.28552933
H   -0.90808372   1.22217632  -2.94832602
H   -1.53600418  -0.00092829  -3.58206589
O   -2.04439712  -1.62372353  -1.06683234
H   -1.65707946  -2.27639958  -0.48353922
H   -2.84466230  -1.34749009  -0.62017523
O    3.68009832  -1.92803771   1.03294068
H    4.47070557  -2.08780794   1.54834877
H    2.99573759  -1.77501272   1.68445091
O   -0.37451869  -2.96920795   0.57102476
H    0.45650821  -3.38760709   0.34615079
H   -0.45483164  -3.08832321   1.51738264
O    2.12189232  -3.66612675  -0.42650299
H    2.76630405  -3.14947778   0.05727300
H    2.55543751  -4.50505995  -0.58290470
O   -1.79071885   2.15859164   3.01059834
H   -2.32124094   2.83948967   3.42430841
H   -1.81093281   2.37225289   2.07776817
O    2.48680989   3.02540326   1.16703576
H    2.75955472   2.19498221   0.77685250
H    3.29143588   3.39587938   1.52974268
O    0.55819968   3.96853323  -0.55075391
H    1.26401164   3.77720432   0.06686617
H    0.67391714   4.89344837  -0.76840797
O   -4.08641142  -0.36412242   0.26895529
H   -4.00991014   0.38571183  -0.32106844
H   -5.02490039  -0.54976713   0.30067839
O    0.54118830   1.62248297  -1.97911390
H    0.64010095   2.51699886  -1.65309325
H    1.39480847   1.40852612  -2.35565995
O   -3.53391674   1.71808331  -1.45359912
H   -4.13629806   2.31803746  -1.89339864
H   -2.96991163   1.38857577  -2.15328110
O    1.25505909  -1.54726089  -1.99804926
H    0.55478972  -1.75632243  -2.61623041
H    1.51465278  -2.39372097  -1.63425219
O   -1.01664290  -1.79940453  -3.55211526
H   -1.50970186  -1.83077988  -2.73227363
H   -1.46215181  -2.42432066  -4.12415852
O    0.79091233   1.31517187   2.52517335
H    1.33986272   2.04622961   2.24155409
H    0.00153746   1.72908331   2.87416689
O    2.94389258   0.47107005  -2.68026037
H    2.43647840  -0.33699300  -2.60412360
H    3.47780597   0.34616042  -3.46484046
O    1.54805198  -1.28980508   2.54068098
H    0.84442936  -1.77939373   2.96665046
H    1.37495734  -0.37575831   2.76604424
O    2.88411486   0.55076599   0.06510155
H    3.29796469  -0.25410489   0.37677931
H    3.06561657   0.56560214  -0.87461589
O   -0.76275778  -2.58494031   3.28626075
H   -1.33154661  -1.86671196   3.00902592
H   -1.20395338  -2.95997134   4.04844840
K    0.07177669  -0.13097095   0.16909653
