16
Energy:   -378.47292695
Na  -0.25326176  -0.33412480   0.82452024
O    0.72880337   1.78181132   0.57450440
H    0.88975106   2.17747184  -0.28210545
H    1.19283001   2.34788894   1.19132469
O    0.74895016  -1.89618242   2.20953201
H    1.24233078  -1.76271545   3.01884900
H    0.81568678  -2.83587871   2.03997683
O   -2.38759325  -0.46380400   1.70583493
H   -2.70112082  -1.03173463   2.40967235
H   -3.18397550  -0.10606498   1.31336844
O   -0.12368901  -0.75082730  -1.42250089
H   -0.37791717  -1.47001994  -2.00074119
H    0.21742623  -0.07813721  -2.01187369
O    0.95643486   1.35077259  -2.84140237
H    0.43233039   1.78684393  -3.51325663
H    1.81637052   1.23489490  -3.24552471
