16
Energy:   -379.81625846
Na  -0.14199752  -0.64522215  -0.64192619
O    0.47955949   2.43276928   1.95685701
H    0.39935135   2.33617619   2.90578708
H    0.63757933   3.36733603   1.82326594
O   -1.25611193   1.14985645   0.24947741
H   -2.07815841   1.63481991   0.17680084
H   -0.73187827   1.65760845   0.86883096
O   -0.73213576  -2.75042459   0.17332136
H   -0.20933368  -3.50093852   0.45552460
H   -1.63941326  -3.03479788   0.28382571
O   -0.44849591  -0.83164793  -2.94194013
H   -0.23057764  -0.19078722  -3.61872742
H   -0.76832160  -1.59281557  -3.42626150
O    1.94896882  -0.14399016   0.36267486
H    2.81504654  -0.52683776   0.50256392
H    1.94429000   0.64399801   0.90607581
