16
Energy:   -378.84593614
Na   0.47092406   0.88924367   0.19550747
O    0.56050265  -1.42016702   0.37695255
H    1.16840997  -2.11135388   0.63951924
H   -0.15317989  -1.88246879  -0.06255417
O   -1.67924818  -2.48809537  -0.78615149
H   -2.15249940  -3.01592198  -0.14298416
H   -1.75152148  -2.98274822  -1.60244002
O    0.26671628   1.48469687   2.42288340
H    0.00676108   0.86148458   3.10130922
H    0.28378352   2.33154188   2.86874670
O    2.34107193   1.88069379  -0.74211573
H    3.10678451   2.09819162  -0.21050423
H    2.58946145   2.12749392  -1.63297160
O   -1.40509746   0.81391211  -1.21769965
H   -1.72615562   1.35774125  -1.93700722
H   -1.91910999   0.00866641  -1.27771904
