16
Energy:   -379.51774687
Na  -0.09407497   0.08819360  -0.86380330
O   -1.44165630   0.40484462   0.96788690
H   -2.33877567   0.52158232   1.28058642
H   -0.90157220   0.48035494   1.75455024
O    0.33695565   0.37071357   3.08573647
H    0.24862015  -0.28967396   3.77298971
H    0.45846234   1.19417249   3.55837098
O   -0.17639406   1.30140718  -2.83455698
H   -0.22409760   2.24623778  -2.98033545
H   -0.16940383   0.92298024  -3.71374753
O    1.82922201  -0.10562492   0.48795564
H    2.78446441  -0.10910573   0.42686800
H    1.64661799  -0.31168876   1.40470278
O   -0.59186647  -1.89905860  -1.93979405
H   -1.20501170  -2.58342414  -1.67159900
H   -0.14828153  -2.26137236  -2.70673145
