16
Energy:   -379.05806807
Na   0.40294216  -0.69329134  -0.69267817
O   -0.74655991   1.94746373   2.06440629
H   -1.32878955   2.69314575   1.91880817
H   -0.57220407   1.95929655   3.00551833
O    1.52042588   1.26351753  -0.10036506
H    2.35202569   1.67787650  -0.33053945
H    1.16989752   1.80533708   0.60659555
O   -1.07260746  -0.03140813  -2.36872954
H   -0.88307286   0.14400257  -3.29043425
H   -2.02348481  -0.13591255  -2.33492217
O   -1.15434252  -0.57862767   1.02475763
H   -1.65341839  -1.12625101   1.63078056
H   -1.12354504   0.27991709   1.44687641
O    1.52966593  -2.72357551  -0.83964337
H    1.32060247  -3.47478575  -1.39480776
H    2.26637431  -3.01841925  -0.30433059
