16
Energy:   -379.47452076
Na   0.70720224  -0.30030954  -0.67789086
O    0.51996200   1.86040931   0.22354552
H    0.86779610   2.71728100  -0.02346498
H   -0.21152947   2.05788186   0.80848712
O   -1.41912896  -0.67046757   0.19703314
H   -2.23437394  -1.12839437  -0.00768742
H   -1.65748064  -0.05403768   0.88944524
O   -1.98477203   1.28149702   2.07907041
H   -2.74738562   1.84880004   1.96584651
H   -2.04974963   0.96935417   2.98160938
O    2.26713554  -1.79153505   0.27686807
H    3.11567492  -1.61756018   0.68423218
H    2.02293969  -2.66136093   0.59310086
O    0.85192386  -0.75629313  -2.94773460
H    0.22468381  -0.73442632  -3.67045419
H    1.67896855  -1.01320582  -3.35544136
