16
Energy:   -379.36000799
Na   0.01803528   0.85735799   0.27979601
O    0.30793842  -2.94816103  -0.57595880
H    0.40401826  -3.69203509   0.01872758
H    0.15562990  -3.34475353  -1.43371655
O   -1.61409345  -0.72560913   0.59306465
H   -2.46259485  -0.64368995   1.02845697
H   -1.61237480  -1.61367471   0.23589741
O   -0.48505587   2.08034788  -1.66072975
H    0.11535855   2.11629015  -2.40533873
H   -1.25146570   2.57768885  -1.94621140
O    0.15991784   2.40231499   2.02769005
H    0.07555936   3.35543739   2.00174394
H    0.41774102   2.20865444   2.92894176
O    1.71179556  -0.56688062  -0.27360957
H    2.65106996  -0.64871853  -0.43883066
H    1.36660794  -1.44942557  -0.40848643
