16
Energy:   -379.64494542
Na  -0.33359910   0.65744839   0.62784100
O    1.41570160  -0.72664509   0.04014970
H    2.26127776  -1.01684289   0.38222872
H    1.20258919  -1.36185387  -0.64346186
O    0.63348319  -2.42410208  -1.98045197
H    1.05229174  -2.24406244  -2.82212707
H    0.61167452  -3.37930947  -1.92270178
O   -1.62107155  -0.42374020  -0.96874828
H   -1.28420464  -1.17671440  -1.45432257
H   -2.35772254  -0.10997296  -1.49327405
O   -0.02973621   2.91016439   0.13110014
H   -0.27902098   3.45167447  -0.61780292
H    0.44241141   3.50669767   0.71201021
O   -0.55507771   0.79619016   2.94044298
H   -0.54224382   0.01565745   3.49437061
H   -0.56904304   1.52801360   3.55726652
