16
Energy:   -381.99859183
Na   0.23857371   0.29207292  -0.90294860
O   -0.71061779  -1.02659680  -2.58881624
H   -1.59514146  -1.38452590  -2.66455588
H   -0.27867191  -1.27959906  -3.40468661
O    1.65590856  -0.70543692   0.63819092
H    2.58183300  -0.92139794   0.74890057
H    1.24240275  -0.99834056   1.45025757
O    0.94781828   2.29150346  -1.82366960
H    1.60225239   2.91012540  -1.49923973
H    0.58955369   2.70975977  -2.60657444
O   -1.42445220   0.44224507   0.67922855
H   -2.27164335   0.81989713   0.91561365
H   -1.13781716  -0.01709844   1.46858002
O   -0.44223110  -0.89686299   2.85020650
H   -0.53036307  -1.82174875   3.08053440
H   -0.45475998  -0.43810610   3.69021661
