16
Energy:   -379.47898703
Na  -0.73224692   0.70095079  -0.07367254
O   -0.53182232  -0.92100924   1.59908784
H    0.32544560  -1.34475340   1.64109317
H   -1.09466051  -1.46273204   2.15224373
O   -2.38397852   0.48004808  -1.67891531
H   -3.33179941   0.56595552  -1.57650769
H   -2.26589316   0.18536234  -2.58193691
O   -0.47999472   2.67809472   1.12358162
H   -0.53204982   2.71756135   2.07854995
H   -0.30662371   3.58039316   0.85519410
O    1.26857590   0.20262656  -1.16685589
H    1.59176413  -0.63723080  -0.84063382
H    1.97140498   0.52815028  -1.72925915
O    1.95240129  -2.13087778   0.06543768
H    2.79168269  -2.25882041   0.50755674
H    1.77015727  -2.97284069  -0.35183611
