16
Energy:   -379.73557320
Na   0.72641115   0.07229264   0.66970920
O   -1.07220117   1.13721889  -0.36024842
H   -1.60720543   1.92818497  -0.29410493
H   -1.54681263   0.57713493  -0.97448109
O    2.63082532   0.94092333  -0.29285562
H    2.79055545   1.85637794  -0.52233548
H    3.43423516   0.48633839  -0.54606899
O   -0.05387049  -2.00466622  -0.01200744
H    0.27601038  -2.90255846  -0.04664818
H   -0.87965888  -2.03357624  -0.49519435
O   -2.31441452  -0.56213760  -2.07490366
H   -3.26568788  -0.66806398  -2.08441391
H   -2.06480697  -0.55214498  -2.99893184
O    0.94317884   0.50747763   2.94894108
H    0.41843881   0.15324729   3.66685516
H    1.59453040   1.06188085   3.37860380
