16
Energy:   -379.82872543
Na  -0.25136738   0.22934830   0.80575162
O   -2.16179736   1.41626946   1.39020254
H   -2.36205521   2.01371771   2.11074694
H   -2.91277320   1.49027743   0.80131379
O    0.72661239  -0.33041544   2.82607336
H    1.65863244  -0.42483488   3.02268320
H    0.28204042  -0.65686735   3.60838837
O   -0.92175098  -1.40781377  -0.69209814
H   -1.28466353  -2.29061382  -0.76414262
H   -0.41279505  -1.29135680  -1.49436585
O    0.89962594  -0.83487919  -2.71957709
H    0.78309940  -0.41989254  -3.57423461
H    1.36369288  -1.65013505  -2.90992311
O    1.29877061   1.24200312  -0.55343521
H    1.90074092   1.98078046  -0.46359291
H    1.45203360   0.91393501  -1.43950158
