16
Energy:   -379.40211876
Na   0.55848514  -0.24018690  -0.92080832
O   -1.70248475  -0.49367997  -0.48877273
H   -1.94329801  -0.30606858   0.41844432
H   -2.52177613  -0.76366605  -0.90362331
O    0.87584317   1.85302906  -1.88077597
H    0.19896529   2.39248480  -2.28950044
H    1.65126947   2.41393492  -1.86259569
O    0.74455234   0.01027830   1.39246086
H    1.45165656  -0.04902718   2.03489244
H   -0.03920537   0.18446892   1.91362622
O   -1.58289087   0.36941916   2.77760278
H   -1.79565719  -0.30818104   3.41933506
H   -1.86178491   1.18682766   3.19026888
O    1.78381944  -1.80243964  -2.07013135
H    1.81557556  -2.73660062  -1.86381444
H    2.36541619  -1.70323387  -2.82387884
