16
Energy:   -379.24854956
Na  -0.07207026   0.63335225   0.64764339
O    1.81347874  -0.50108214  -0.13949105
H    1.72805946  -1.25149472  -0.72755257
H    2.75582945  -0.34031970  -0.09088614
O   -0.41768645   0.63873757   2.96698596
H   -0.55362733   1.38078884   3.55614794
H   -0.32781539  -0.11615718   3.54861209
O   -0.08599488  -2.36038682  -2.25697743
H   -0.12358047  -3.30728235  -2.12204032
H   -0.11073607  -2.25229305  -3.20773264
O    0.16587121   2.93728894   0.27897375
H    0.89897090   3.44085587  -0.07488644
H   -0.54696914   3.57167433   0.35411137
O   -1.51687960  -0.56953524  -0.68863579
H   -1.13186744  -1.19930230  -1.29805430
H   -2.46065788  -0.71215962  -0.76055717
