7
Energy:   -128.61052199
O    0.79992386   1.09722679  -0.70956299
H    0.77150909   0.43392311  -0.02003223
H   -0.07713696   1.08283941  -1.09269374
C   -0.66739798  -1.11214949   0.86777948
O   -1.43628547   0.01940359   0.79458088
O    0.62436954  -0.76767912   1.16740528
O   -0.69899413  -1.76403845  -0.33713657
