7
Energy:   -125.84901295
O    0.20649334  -1.53947644  -0.43548921
H   -0.64105501  -1.19229279  -0.71362075
H    0.65609113  -0.79033522  -0.04448907
C   -0.01028707   1.56037003   0.36648758
O   -0.86808685   1.19125288  -0.63595467
O    1.12207596   0.79160350   0.30443286
O   -0.62078238   1.37801166   1.57967392
