7
Energy:   -128.01317408
O    0.50423908   1.16544542   0.83372445
H   -0.30069269   0.89105726   0.39437513
H    1.12914144   0.46411557   0.64969912
C   -0.60436728  -1.08276572  -0.89784350
O    0.63702577  -0.69994832  -1.33299002
O   -1.36742651   0.02975881  -0.65882768
O   -0.47911294  -1.80820475   0.25793752
