7
Energy:   -129.20202177
O   -0.87606304  -1.24279269   0.10027768
H   -1.40708288  -0.54455757  -0.28275951
H   -0.01957339  -0.84080149   0.24539973
C    1.03011390   1.15233486   0.05968179
O    0.76184920   1.30387691  -1.27524421
O    1.45040326  -0.12968994   0.29815203
O   -0.10524808   1.40358038   0.78467081
