7
Energy:   -127.64135612
O   -1.24843703  -0.96079153  -0.19332233
H   -0.74744225  -1.15346402   0.59921372
H   -0.80353736  -0.20724386  -0.58121669
C    1.08253172   1.12931095   0.10114878
O    2.14291786   0.34791582  -0.27562868
O    0.61869773   0.71203741   1.32091909
O    0.08262047   1.02122798  -0.82959058
