7
Energy:   -127.12376690
O   -0.07765105   1.36455980  -0.81111824
H   -0.17785457   0.93320632   0.03748371
H    0.24413674   0.67649502  -1.39357110
C    0.10390772  -1.23456251   1.00996399
O    1.17816145  -1.12062170   0.16737584
O   -0.92730303  -1.85348376   0.35373259
O   -0.29411167   0.01314606   1.41318117
