7
Energy:   -123.72979052
O   -0.32392169  -1.09325579  -0.91781429
H    0.60244495  -1.29330204  -0.78343353
H   -0.48924665  -0.33454736  -0.35811703
C    0.16227998   1.18902229   0.94658647
O   -0.54896610   1.66692395  -0.12238378
O    1.36803164   0.70429677   0.51264765
O   -0.54412295   0.18260249   1.55147844
