7
Energy:   -128.82945986
O    0.12350282  -0.97481363   1.17257922
H    0.42532806  -0.10882750   1.44680796
H   -0.17456105  -0.85083837   0.27145775
C   -0.27114364   0.86312622  -1.25625091
O   -0.52799652   1.52521979  -0.08466349
O   -0.78197431  -0.40613946  -1.18472851
O    1.08286032   0.80035957  -1.45753140
