7
Energy:   -125.44713332
O    1.51897756   0.19046626  -0.46998974
H    1.34497848   0.88537001   0.16488423
H    0.71824098  -0.33393771  -0.47728708
C   -1.47155894  -0.43524798   0.45716338
O   -0.62300251   0.13878021   1.36677979
O   -0.75039975  -1.20447023  -0.41766537
O   -2.13143546   0.54674717  -0.23423283
