7
Energy:   -125.85516933
O   -0.43181132  -1.47785176   0.51072390
H   -0.74370891  -0.58107692   0.38928815
H    0.51328261  -1.42454666   0.36863983
C    0.30053820   1.52954677  -0.32247503
O    1.31489820   0.72791697   0.13075983
O   -0.89842803   1.05336694   0.13886164
O    0.29598380   1.52887472  -1.69278850
