7
Energy:   -124.64964419
O   -0.75720323   1.32486317  -0.66765698
H   -0.03180769   0.99254400  -0.13888754
H   -1.21003207   0.53936928  -0.97454011
C    0.98552353  -1.16082083   0.56793159
O    0.20567262  -1.43040834  -0.52573815
O    0.37257433  -1.64109811   1.69519633
O    1.15758391   0.19378122   0.68294771
