7
Energy:   -124.92235623
O   -0.63901399   1.24401239   0.88849902
H    0.06070362   0.94363174   0.30850024
H   -1.25079009   0.50885218   0.92724590
C    0.61655354  -0.98178164  -1.07715845
O   -0.66448215  -1.12878910  -0.61423864
O    1.41411382  -1.95156742  -0.52896878
O    1.09067167   0.25419118  -0.72309154
