7
Energy:   -124.01355108
O    1.01437484  -0.84917693  -0.84359085
H    0.21098072  -0.89697093  -1.36176597
H    0.76427794  -0.36402285  -0.05726464
C   -0.86483026   0.84100254   1.05492703
O   -1.76386856   0.08429135   0.35059992
O   -0.46437736   1.90428091   0.28930613
O    0.22392740   0.07378547   1.37705265
