7
Energy:   -128.29375663
O    0.48762902  -0.89705607  -1.15721532
H   -0.07517617  -1.34047847  -0.52250378
H    0.53249969   0.00750730  -0.84740316
C   -0.40538425   1.04351827   1.08281354
O   -1.57095725   0.60407714   0.51247201
O    0.49041750   1.36830207   0.09835760
O    0.11964430   0.05215421   1.86978401
