7
Energy:   -127.33682534
O   -0.84497429   1.21134528  -0.45696185
H    0.06350604   0.93344146  -0.34006527
H   -1.36300006   0.51244956  -0.05768009
C    0.96099611  -1.11837133   0.49288698
O   -0.23173890  -1.06957166   1.16516681
O    1.43791971   0.15383760   0.31645823
O    0.77228279  -1.70943407  -0.72892002
