7
Energy:   -130.90126888
O   -0.37136471  -0.05381945   1.43947415
H   -1.12296013  -0.11345000   0.84974508
H    0.38720115  -0.00739602   0.85753382
C    0.50701661   0.01884591  -1.42040971
O   -0.06142755   1.26157085  -1.32312493
O   -0.45277563  -0.93881938  -1.22349641
O    1.48478268  -0.11142178  -0.46920835
