7
Energy:   -125.18690437
O   -0.10137783   0.08815714  -1.47365900
H    0.17710092  -0.68352995  -0.98052569
H   -0.22197529   0.76676873  -0.80944939
C    0.10189113  -0.06705371   1.48687299
O   -0.93455924  -0.89749535   1.15057598
O   -0.18743425   1.21015705   1.08422884
O    1.24752169  -0.49324626   0.86746140
