13
Energy:   -175.28130183
C   -1.47360398  -0.03060541   4.63893475
H   -1.53229326   0.97688849   4.99447912
H   -0.57268808  -0.48332330   4.99711927
H   -2.31707106  -0.58426199   4.99520256
C   -1.47181861  -0.03221653   3.09893663
N   -1.47048932  -0.03341608   1.95233803
C    1.94467286   0.09166466  -4.44802035
H    2.03051358  -0.81080672  -5.01641895
H    2.87528677   0.29651202  -3.96130236
H    1.69772028   0.90241677  -5.10116239
C    0.83716316  -0.07115553  -3.39042315
N    0.01257184  -0.19238256  -2.60299396
Na  -0.55996418  -0.02931381  -0.15668921
