13
Energy:   -173.11229023
C   -0.20466594   3.40575395   1.34487228
H   -0.02848151   2.70048283   2.13001677
H   -1.19209255   3.80667770   1.44051710
H    0.51032789   4.19904851   1.41095289
C   -0.06614004   2.70203426  -0.01791500
N    0.03699880   2.17808296  -1.03257207
C    0.23168148  -3.74801620  -0.33822076
H   -0.56245403  -4.17367172   0.23889825
H    1.13959222  -3.77874353   0.22715789
H    0.35522118  -4.30730768  -1.24200728
C   -0.10987522  -2.28620182  -0.68178695
N   -0.36417971  -1.19781456  -0.93758759
Na   0.25406743   0.49967530  -2.54232553
