13
Energy:   -176.86327321
C    1.69818272  -0.12327600   4.65167156
H    2.64105424   0.36008538   4.80085345
H    1.80248329  -1.17248761   4.83381295
H    0.97665326   0.28605361   5.32749964
C    1.22949992   0.10199706   3.20212388
N    0.88054427   0.26972310   2.12286974
C   -2.04063985   0.15889731  -4.45425652
H   -2.91689285   0.52408400  -3.96057693
H   -2.27142422  -0.75476622  -4.96106677
H   -1.70239311   0.88478628  -5.16388560
C   -0.93415408  -0.09644399  -3.41402094
N   -0.11032513  -0.28655719  -2.63951827
Na   0.74741155  -0.15209572  -0.34550618
