13
Energy:   -173.02365228
C    2.51639609  -0.26647826  -1.06142143
H    2.21420956   0.00888139  -2.05023918
H    2.25471931  -1.28799623  -0.87996786
H    3.57542790  -0.14720324  -0.96590077
C    1.80372235   0.63576667  -0.03689704
N    1.27310435   1.30752903   0.72590794
C   -2.38761921  -0.89577771   0.00389818
H   -2.61335345  -1.76632595   0.58363087
H   -1.54469631  -1.09445300  -0.62451904
H   -3.23221545  -0.64186568  -0.60197720
C   -2.06032171   0.27766348   0.94597679
N   -1.81663385   1.15134379   1.64739715
Na   0.01726043   2.71891570   2.31411159
