13
Energy:   -178.91464725
C    2.67466479  -1.34045628   0.68107192
H    2.69069106  -0.28682295   0.86681403
H    2.98699127  -1.53012752  -0.32460003
H    3.33958914  -1.83243650   1.35984299
C    1.24508573  -1.87583308   0.88423541
N    0.18069914  -2.27444543   1.03549986
C   -1.82026146   2.45296018  -0.93734004
H   -0.81017618   2.79752742  -0.86051994
H   -2.43202251   2.98266634  -0.23729799
H   -2.18171854   2.62616585  -1.92943261
C   -1.87332267   0.94537066  -0.62756861
N   -1.91282916  -0.17709826  -0.39692969
Na  -2.08739059  -2.48747043   0.48622470
