13
Energy:   -183.35408829
C    0.57415840  -0.16529162  -4.27324189
H    0.66243977  -1.05766711  -4.85699916
H    1.54879350   0.17361994  -3.99017922
H    0.08701703   0.59215738  -4.85105103
C   -0.25452881  -0.45887814  -3.00885094
N   -0.87152411  -0.67746665  -2.06745441
C    0.20890248   0.41363264   4.33113881
H   -0.46796683  -0.07494604   5.00049596
H    0.25752633   1.45537105   4.57054619
H    1.18206636  -0.02044610   4.42823049
C   -0.28752312   0.24224472   2.88345521
N   -0.65713454   0.11463863   1.80558896
Na  -1.98222647  -0.53696871   0.02832105
