13
Energy:   -172.75299723
C    4.69018110  -1.38065185  -0.43586994
H    5.31666855  -0.70121845  -0.97511378
H    4.90079207  -2.38278955  -0.74613135
H    4.87962769  -1.28470007   0.61284468
C    3.21272104  -1.05429715  -0.72258301
N    2.11268487  -0.81131125  -0.93605393
C   -4.49544396   1.52473338   1.10247118
H   -4.27103384   1.31365305   2.12715912
H   -5.45836939   1.12678101   0.85893962
H   -4.49783313   2.58362040   0.94868020
C   -3.42909345   0.87727830   0.19953236
N   -2.63514703   0.39521856  -0.47274664
Na  -0.32575453  -0.20631640  -1.56112853
