13
Energy:   -174.14587048
C    2.30549428   0.35720681  -4.18272379
H    2.84161843  -0.55592172  -4.02888176
H    2.95270466   1.18743610  -3.99105445
H    1.95885643   0.40123904  -5.19406075
C    1.10127437   0.41314632  -3.22443094
N    0.20467791   0.45479584  -2.51093836
C   -1.93533241  -0.26394574   4.40006140
H   -1.57929528   0.69758255   4.70600433
H   -1.60314203  -1.00539720   5.09633605
H   -3.00490830  -0.25559966   4.37113314
C   -1.38647484  -0.59270459   2.99924985
N   -0.97782543  -0.83748049   1.95628198
Na  -0.87764779  -0.00035727  -0.39697670
