13
Energy:   -175.78744434
C   -0.09681181  -2.81557669  -3.71232573
H   -0.70059674  -3.63747884  -3.38856534
H    0.80142159  -3.18724358  -4.15947175
H   -0.63887971  -2.23565183  -4.42978559
C    0.25957570  -1.93238619  -2.50213464
N    0.52492240  -1.27481071  -1.60109236
C   -0.30933544   3.12333488   3.35488608
H    0.62657492   3.60690713   3.54231569
H   -0.87955514   3.08709963   4.25956039
H   -0.85175733   3.67145585   2.61310378
C   -0.05497414   1.69061699   2.85068395
N    0.13440941   0.62389340   2.47528255
Na   1.18500629  -0.72016005   0.69754298
