13
Energy:   -174.98127666
C   -2.44475628  -0.37665057   4.07017742
H   -1.92708871   0.35521600   4.65437927
H   -2.58865022  -1.26200484   4.65356531
H   -3.39583985   0.01256147   3.77209501
C   -1.61386004  -0.71591799   2.81873463
N   -0.99522002  -0.96851801   1.88697859
C    1.99893987   0.76623116  -4.20080834
H    2.98050467   1.12733535  -4.42671649
H    1.29013937   1.55802822  -4.32554151
H    1.75423786  -0.03891394  -4.86168759
C    1.95855108   0.26572137  -2.74497225
N    1.92847980  -0.10693092  -1.66103612
Na   1.05456248  -0.61615729   0.36483208
