13
Energy:   -183.90029528
C    1.74236224  -2.30794024   3.80607743
H    2.77040708  -2.02581793   3.71425703
H    1.67875906  -3.34265862   4.07105214
H    1.27653228  -1.71589150   4.56593257
C    1.02473284  -2.07687166   2.46323888
N    0.49042513  -1.90483061   1.46343455
C   -1.53973907   2.75983622  -3.63599611
H   -2.37229491   3.30995789  -3.24983927
H   -1.79651377   2.34639815  -4.58890472
H   -0.70000591   3.41385988  -3.74554225
C   -1.18050479   1.62180679  -2.66263094
N   -0.91303854   0.77449215  -1.93791633
Na  -0.48112165  -0.85234052  -0.26316298
