13
Energy:   -172.45713188
C    0.56350514   2.24003031   3.94086254
H    0.32098854   1.59463894   4.75912647
H    0.26386359   3.24027422   4.17458493
H    1.61911094   2.21517348   3.76772208
C   -0.17547698   1.76508232   2.67597921
N   -0.72568276   1.41146195   1.73421608
C    0.05742316  -2.32721906  -3.95847468
H   -0.37057859  -3.29322062  -3.78949044
H    1.11033697  -2.42703637  -4.12067237
H   -0.39549992  -1.88212883  -4.81966831
C   -0.19011287  -1.43383225  -2.72876498
N   -0.37441468  -0.76866517  -1.81319022
Na  -1.70346254  -0.33455892   0.17776970
