13
Energy:   -178.18675919
C    3.11278268   1.26048394  -1.51542391
H    3.56363607   1.31191271  -2.48443706
H    3.84672697   0.96299694  -0.79589186
H    2.72374800   2.22169991  -1.25157744
C    1.96747680   0.23118954  -1.53609932
N    1.11474450  -0.53516692  -1.55149311
C   -2.85141687  -0.15126457   2.11258429
H   -2.07836166   0.47918145   2.49965487
H   -3.28803330  -0.71223297   2.91232152
H   -3.60345535   0.45116590   1.64738031
C   -2.25326292  -1.11831170   1.07401233
N   -1.80791012  -1.83832224   0.30074829
Na  -0.44667479  -2.56333201  -1.41177891
