60
Energy:   -254.72415535
    C      3.00817473      1.27122103     -3.19084339
    H      2.43235508      0.41677395     -3.47937781
    H      4.00155932      1.17901863     -3.57760540
    H      2.55345389      2.15678350     -3.58315342
    C      3.06165152      1.35914081     -1.65428544
    N      3.10146742      1.42460109     -0.51024820
    C      0.01739934     -3.37665279      3.11337049
    H      0.50618110     -3.40533315      2.16196627
    H     -0.42969715     -4.32794666      3.31347994
    H      0.73373316     -3.15178136      3.87573378
    C     -1.07358347     -2.28986728      3.09744008
    N     -1.88586976     -1.48070608      3.08557917
    C      2.94847788      1.71520337      3.07566463
    H      2.71882315      2.14920692      2.12498077
    H      3.99793599      1.80439249      3.26429675
    H      2.40368798      2.22605408      3.84191172
    C      2.55266336      0.22695124      3.06962646
    N      2.25796146     -0.88112012      3.06513077
    C      3.11042961     -2.20311897      0.07741611
    H      2.18724500     -2.55978460      0.48413467
    H      3.28549965     -1.20259386      0.41386684
    H      3.91097076     -2.83407464      0.40288178
    C      3.03497438     -2.22169083     -1.46062212
    N      2.97879454     -2.23551842     -2.60576149
    C     -3.46288897     -1.59121040      0.10203888
    H     -3.30941541     -0.60890024      0.49752946
    H     -2.68319413     -2.23925624      0.44410853
    H     -4.40887508     -1.96543106      0.43365353
    C     -3.44444103     -1.53370305     -1.43677643
    N     -3.43070570     -1.49088622     -2.58249438
    C     -0.40948423     -3.27602684     -3.15381967
    H      0.58401156     -3.32924693     -3.54756314
    H     -0.86225303     -2.35344099     -3.45170363
    H     -0.98669296     -4.09453044     -3.53035790
    C     -0.35697772     -3.34923046     -1.61645690
    N     -0.31788424     -3.40373388     -0.47182043
    C     -2.63871052      1.95735614     -3.17055381
    H     -3.18227450      1.11920374     -3.55387996
    H     -1.61393454      1.88489924     -3.46969135
    H     -3.05976415      2.86220475     -3.55638010
    C     -2.72529376      1.96564725     -1.63301207
    N     -2.78975892      1.97182037     -0.48824235
    C     -2.92682573      1.70777175      3.10039003
    H     -3.19793776      1.28827544      2.15412300
    H     -3.52674748      2.57277972      3.29210388
    H     -3.08870744      0.98348038      3.87116589
    C     -1.44019692      2.10900686      3.07704149
    N     -0.33333419      2.40774463      3.05965743
    C      0.00223149      0.00265134      0.53003386
    H     -0.98579529      0.20068020      0.88987804
    H      0.66843515      0.76325789      0.88010448
    H      0.32855910     -0.95064081      0.89009423
    C     -0.00425162     -0.00503899     -1.00993329
    N     -0.00907859     -0.01076479     -2.15650884
    C      0.35349210      3.79549587      0.05913353
    H     -0.59690301      3.44814394      0.40697825
    H      0.50305801      4.80548765      0.37920498
    H      1.12823911      3.17586200      0.46003254
    C      0.39103102      3.73359932     -1.47916412
    N      0.41898045      3.68751451     -2.62449664
