60
Energy:   -253.08854450
    C      1.94159344      4.53493059     -2.77925570
    H      2.33241116      5.41924745     -3.23767187
    H      0.87719740      4.51778420     -2.88726575
    H      2.36205182      3.67225843     -3.25244759
    C      2.30589755      4.52845640     -1.28298013
    N      2.57713853      4.52363607     -0.16893495
    C     -3.43058097     -1.96145836      1.73653312
    H     -2.50629971     -1.55517976      2.09085225
    H     -3.53484503     -2.96767050      2.08519519
    H     -4.24379734     -1.37076216      2.10348844
    C     -3.44036907     -1.94816349      0.19662162
    N     -3.44765676     -1.93826486     -0.94991250
    C     -1.19074716      0.31463537      3.93653634
    H     -1.61171930      1.00615274      4.63616936
    H     -1.39847355     -0.68561859      4.25472004
    H     -1.62088732      0.47821898      2.97055552
    C      0.33319175      0.52354750      3.86193124
    N      1.46783354      0.67909208      3.80638436
    C      1.96187988     -2.40702480      2.42326917
    H      2.45669658     -2.08520023      3.31572956
    H      1.92261119     -1.59695847      1.72530814
    H      2.50104157     -3.22413238      1.99136759
    C      0.53023896     -2.86007827      2.76495148
    N     -0.53568279     -3.19739718      3.01934950
    C     -0.62072162     -4.06587472     -0.49974386
    H      0.17774817     -4.68823883     -0.15332056
    H     -1.54929121     -4.58788769     -0.39894669
    H     -0.65126234     -3.16818775      0.08174084
    C     -0.38951895     -3.71082475     -1.98031295
    N     -0.21737805     -3.44647391     -3.08266394
    C      2.97727267     -2.01700440     -3.48052540
    H      2.91432837     -0.97256613     -3.70432642
    H      2.22327882     -2.54478363     -4.02627392
    H      3.94268402     -2.38410816     -3.76001572
    C      2.76358186     -2.23225258     -1.97068950
    N      2.60447934     -2.39251464     -0.84654804
    C     -0.57478863     -0.14390790     -2.15750268
    H     -1.42951871     -0.70366968     -2.47531306
    H      0.30395912     -0.54034641     -2.62176337
    H     -0.69515803      0.88140181     -2.43883931
    C     -0.43611394     -0.24337398     -0.62698779
    N     -0.33286433     -0.31743101      0.51255012
    C     -4.00269592      1.57033851     -1.34429466
    H     -3.52268657      2.41710830     -1.78867303
    H     -5.06113987      1.64820353     -1.48042889
    H     -3.64818418      0.67444479     -1.80969230
    C     -3.68041382      1.52897274      0.16103690
    N     -3.44046014      1.49817404      1.28182468
    C      3.07317712      1.05092568      0.65261502
    H      3.32637076      2.02588351      1.01351721
    H      3.88680016      0.38049814      0.83549082
    H      2.19962638      0.69847435      1.16014459
    C      2.79501816      1.11989629     -0.86048466
    N      2.58791617      1.17124803     -1.98705615
    C     -0.20610628      3.15987748      1.40978734
    H     -1.07181515      3.10534561      2.03626528
    H      0.35651934      4.03652939      1.65439504
    H      0.40073997      2.29214517      1.56366185
    C     -0.64329871      3.22552516     -0.06539168
    N     -0.96880835      3.27440284     -1.16372952
