60
Energy:   -253.05825594
    C      3.41199171      0.60356595     -0.31776955
    H      2.68380979      0.06787512     -0.89020872
    H      3.82523379     -0.04280145      0.42811199
    H      4.19232658      0.94645878     -0.96460886
    C      2.74216960      1.81133894      0.36356937
    N      2.24345659      2.71058084      0.87085717
    C     -0.11451061     -3.09665266      3.61398122
    H     -0.45745362     -3.75411675      2.84259854
    H     -0.28549151     -3.54763276      4.56911554
    H      0.93227042     -2.91429253      3.48791235
    C     -0.88142788     -1.76378150      3.53096098
    N     -1.45243266     -0.77139833      3.46914865
    C      1.21480143      1.50201953      3.95816475
    H      1.62875327      2.39328530      3.53485708
    H      1.31978441      1.53062927      5.02261726
    H      0.17767484      1.43468297      3.70373731
    C      1.96061154      0.27499856      3.40157978
    N      2.51590106     -0.63857433      2.98717698
    C      2.35343378     -3.13041674      0.66919197
    H      1.57652043     -2.54497831      1.11480130
    H      3.29017946     -2.88606142      1.12492995
    H      2.14570259     -4.16973589      0.81603382
    C      2.42237246     -2.82885623     -0.83941955
    N      2.47370043     -2.60433072     -1.96264940
    C     -3.52370910     -1.83291126      0.88602116
    H     -3.81856078     -2.30479071     -0.02792219
    H     -3.91658869     -2.38392444      1.71483308
    H     -2.45570504     -1.80987452      0.94714177
    C     -4.07101863     -0.39386364      0.92057884
    N     -4.47851545      0.67757272      0.94630861
    C     -0.95295311     -3.10032749     -2.15337202
    H     -1.92171622     -3.20322341     -2.59587699
    H     -0.22584167     -3.58643119     -2.76974142
    H     -0.70936049     -2.06212518     -2.06563559
    C     -0.95574664     -3.74684473     -0.75565687
    N     -0.95782656     -4.22820621      0.28500560
    C     -3.97418063      2.07356040     -2.23802303
    H     -4.65164640      2.12260200     -1.41126113
    H     -4.50409724      2.27393019     -3.14573413
    H     -3.20038001      2.80116697     -2.10871578
    C     -3.35014594      0.66738239     -2.30762259
    N     -2.88552374     -0.37958106     -2.35944263
    C     -1.20957209      1.73983677      0.92025893
    H     -0.48654089      2.51661093      1.05718214
    H     -1.72672178      1.56759695      1.84101337
    H     -1.91047662      2.03370462      0.16708324
    C     -0.49710774      0.44680691      0.48200294
    N      0.03335436     -0.51591260      0.15570143
    C      0.79014859      0.32167986     -3.29217002
    H      1.74418487      0.60473453     -3.68535574
    H      0.20604622     -0.13197957     -4.06542072
    H      0.92669842     -0.37597691     -2.49246491
    C      0.06118929      1.57132962     -2.76435015
    N     -0.48155404      2.50175067     -2.37136427
    C      1.93852647      4.99906479     -1.83077168
    H      0.89835463      4.92188121     -2.06948787
    H      2.32843279      5.91346168     -2.22668894
    H      2.06225712      4.98910691     -0.76799670
    C      2.69634445      3.80843324     -2.44697654
    N      3.26057437      2.92195393     -2.90576907
