60
Energy:   -252.86823971
    C      0.98941558      2.77954001     -4.27598910
    H      1.11309346      3.26997483     -5.21889824
    H      0.32006501      3.34710983     -3.66383438
    H      0.58611465      1.80099133     -4.43311941
    C      2.35523065      2.66518261     -3.57379853
    N      3.37214205      2.58003833     -3.05098573
    C      0.99972022     -3.58037608      2.48380865
    H      1.67166015     -3.06450358      3.13746949
    H      1.00631136     -4.62457329      2.71727780
    H      0.01053772     -3.19272891      2.61087847
    C      1.44682688     -3.37790523      1.02411649
    N      1.77971810     -3.22715648     -0.06269067
    C      1.67299478      0.45658579      4.72764559
    H      2.11133322     -0.15110014      5.49150251
    H      0.60879262      0.34815576      4.75246069
    H      1.93109616      1.48138305      4.89519658
    C      2.20229856      0.01231467      3.35139682
    N      2.59638928     -0.31846538      2.32671706
    C      3.41410535     -0.66727690     -1.44691346
    H      3.26229337     -0.69120866     -0.38800809
    H      4.05899093      0.14928553     -1.69640790
    H      3.86256640     -1.58563316     -1.76377865
    C      2.05899686     -0.48632572     -2.15581236
    N      1.05005700     -0.35159934     -2.68361982
    C     -4.12982494     -2.07839932      0.79572265
    H     -5.00264511     -2.60701126      1.11767693
    H     -4.28584415     -1.70124810     -0.19337495
    H     -3.94030359     -1.26328145      1.46247868
    C     -2.92183227     -3.03357124      0.79628005
    N     -2.02242681     -3.74474015      0.79669506
    C     -0.51398203     -3.61285805     -2.50103918
    H      0.39847674     -3.06336720     -2.60291649
    H     -0.61833737     -4.28693871     -3.32543248
    H     -0.49581122     -4.16799548     -1.58649484
    C     -1.70320136     -2.63455721     -2.48416209
    N     -2.58862921     -1.90616777     -2.47159633
    C     -2.32494647      1.40780457     -2.61641283
    H     -1.37363571      0.91881955     -2.58809891
    H     -2.18513245      2.44830536     -2.82307497
    H     -2.92845618      0.96972044     -3.38371813
    C     -3.02674888      1.24454750     -1.25537628
    N     -3.54927268      1.12299519     -0.24202270
    C     -2.17190888      3.02298099      2.16102847
    H     -2.71506881      3.77693429      2.69153002
    H     -2.62394870      2.06885690      2.33482806
    H     -2.19003867      3.24075411      1.11358144
    C     -0.71346923      2.99764678      2.65490292
    N      0.37240538      2.97878431      3.02261489
    C     -0.37628829     -0.36903051      0.41878727
    H      0.68295226     -0.52037745      0.42072056
    H     -0.59764911      0.59818776      0.01830344
    H     -0.84277334     -1.11996187     -0.18403351
    C     -0.91081996     -0.46249568      1.86001596
    N     -1.30880308     -0.53208475      2.93307624
    C      2.49120315      2.71923273      0.31823880
    H      2.51186853      3.22202020      1.26252577
    H      3.25464314      3.11944056     -0.31571085
    H      2.66299904      1.67365137      0.46705039
    C      1.11541745      2.92445042     -0.34259357
    N      0.09108247      3.07724432     -0.83461330
