60
Energy:   -252.84836527
    C      3.19009740      2.38848833     -1.25992525
    H      2.92962459      1.44857526     -1.69994516
    H      4.09348663      2.75183272     -1.70351047
    H      2.40178632      3.09202121     -1.42876309
    C      3.39935740      2.20575447      0.25480858
    N      3.55516098      2.06970080      1.38259678
    C      1.98974776     -4.61439809     -1.18365500
    H      0.97532365     -4.51087124     -1.50788656
    H      2.38203318     -5.54704992     -1.53175240
    H      2.57473487     -3.81108709     -1.58036724
    C      2.04321833     -4.57724520      0.35496795
    N      2.08302960     -4.54958318      1.50054267
    C      1.34184720      3.26297479      3.54273911
    H      0.86687892      3.74670514      4.37057379
    H      1.17725121      3.83456137      2.65330332
    H      2.39283531      3.18751938      3.72882934
    C      0.74970339      1.85270416      3.36356752
    N      0.30882541      0.80269357      3.23016612
    C      2.90289157     -1.29205400      2.26596874
    H      3.47992205     -2.14479453      2.55712092
    H      1.91722427     -1.37197872      2.67458972
    H      3.37039866     -0.40260967      2.63369826
    C      2.81816223     -1.22984806      0.72956015
    N      2.75507739     -1.18353292     -0.41436588
    C     -4.07004178     -1.33811198     -1.13386188
    H     -4.90174180     -1.58269865     -1.76104019
    H     -4.24864377     -1.70594742     -0.14507600
    H     -3.18242851     -1.78816534     -1.52691880
    C     -3.89346142      0.19106119     -1.08859824
    N     -3.76198931      1.32960012     -1.05489740
    C      0.73136751     -1.50185440     -3.25203472
    H      1.38427141     -0.65845382     -3.33742875
    H      0.99876499     -2.23542644     -3.98365604
    H      0.82133776     -1.92490591     -2.27334587
    C     -0.72267101     -1.05104667     -3.48472414
    N     -1.80526878     -0.71539982     -3.65797199
    C     -1.88816489      2.90732809     -3.36809019
    H     -2.03563990      3.67193295     -4.10193671
    H     -2.11103341      3.29730555     -2.39693299
    H     -2.53561901      2.08174329     -3.57811872
    C     -0.42329452      2.43381677     -3.40735614
    N      0.66736806      2.08126607     -3.43659143
    C     -3.00143111      2.26725625      2.31423993
    H     -3.11805949      2.68486985      1.33602887
    H     -2.04562241      2.54315724      2.70820371
    H     -3.77262325      2.64005575      2.95547492
    C     -3.09928346      0.73255835      2.23222009
    N     -3.17213898     -0.41009400      2.17115259
    C     -0.85790992     -2.72711094      2.41946836
    H     -1.82372602     -3.01936326      2.77540097
    H     -0.62798437     -1.74528879      2.77732112
    H     -0.12247302     -3.41786759      2.77568024
    C     -0.85725701     -2.72540280      0.87946945
    N     -0.85677088     -2.72413101     -0.26712974
    C     -0.21678649      0.65346141     -0.28492491
    H     -0.14066421      0.08751077      0.61995379
    H      0.62772606      0.44508992     -0.90804526
    H     -1.11514035      0.38372759     -0.79980654
    C     -0.24885448      2.15612417      0.05059896
    N     -0.27273056      3.27492490      0.30041173
