60
Energy:   -252.69488847
    C      3.40056757      2.80863938      1.95751646
    H      3.08285025      3.23016731      1.02678014
    H      4.33524824      3.24285432      2.24514210
    H      2.66685765      3.01090738      2.70961786
    C      3.56859562      1.28589193      1.80065103
    N      3.69370015      0.15213723      1.68385758
    C      0.51646675      0.50933150      0.02400172
    H     -0.36695859      0.19647213     -0.49231103
    H      0.24924492      1.17900092      0.81459293
    H      1.01213769     -0.34602861      0.43335303
    C      1.45914460      1.22687220     -0.95991587
    N      2.16101110      1.76111387     -1.69248725
    C     -1.19416411     -3.06250015     -2.16440590
    H     -1.84158468     -2.21128025     -2.19863242
    H     -1.78119023     -3.95707412     -2.15833587
    H     -0.55633996     -3.06026582     -3.02351850
    C     -0.33547211     -3.00331838     -0.88739941
    N      0.30386311     -2.95925485      0.06338997
    C     -1.70260514      3.05316781      2.80990974
    H     -2.04405029      2.13249783      2.38484249
    H     -2.50627392      3.75944668      2.82353862
    H     -1.36287680      2.88010630      3.80967644
    C     -0.54344988      3.61081096      1.96315523
    N      0.31959390      4.02600163      1.33270801
    C     -3.69266275     -0.43349181     -0.45250334
    H     -4.13715643     -1.38509542     -0.65689540
    H     -3.05756164     -0.15414671     -1.26706579
    H     -4.46155288      0.30074879     -0.33168193
    C     -2.86036648     -0.52269982      0.84013924
    N     -2.24068406     -0.58911924      1.80257039
    C      3.59330347     -1.75396346     -1.05516615
    H      3.91915610     -0.73531753     -1.02229213
    H      4.44512616     -2.39943367     -1.10679358
    H      3.02985520     -1.97683262     -0.17326225
    C      2.70927407     -1.97029294     -2.29745983
    N      2.05107400     -2.13136007     -3.22240394
    C      0.95569078      0.52665865     -4.87019391
    H      1.16880778     -0.42181442     -5.31727349
    H      1.82059518      0.87639034     -4.34624046
    H      0.69234832      1.22937481     -5.63291263
    C     -0.21684001      0.37701245     -3.88308825
    N     -1.08984247      0.26559404     -3.14814322
    C      0.91064635     -1.52238246      3.22062031
    H      0.84677678     -2.11007832      4.11249162
    H      1.83197217     -1.73391276      2.71930927
    H      0.09076867     -1.76191540      2.57616423
    C      0.85656122     -0.02734319      3.58604114
    N      0.81629238      1.08578150      3.85811356
    C     -2.07341141     -4.03321302      2.54047510
    H     -2.40973098     -4.85665515      3.13522916
    H     -2.21146592     -3.12141916      3.08312784
    H     -1.03564765     -4.15864629      2.31197575
    C     -2.88427286     -3.97984323      1.23232550
    N     -3.48799606     -3.94010700      0.25834866
    C     -0.70215600      3.82728274     -2.09988900
    H      0.13807174      4.09525634     -1.49399488
    H     -1.10971097      4.70653200     -2.55345131
    H     -0.38894345      3.14508483     -2.86238687
    C     -1.77567518      3.15799324     -1.22170443
    N     -2.57495900      2.65967679     -0.56785610
