60
Energy:   -254.66877350
    C      3.00027264      1.23110164     -3.21344039
    H      3.34023289      0.27180137     -3.54369817
    H      3.62052125      1.99403246     -3.63549171
    H      1.98854307      1.37895079     -3.52878626
    C      3.07442407      1.30093473     -1.67681262
    N      3.12963317      1.35292865     -0.53272340
    C     -0.04949649     -3.31762673      3.17336763
    H      0.44372661     -3.36685393      2.22510193
    H     -0.51616501     -4.25764639      3.38189250
    H      0.66699639     -3.09792597      3.93708789
    C     -1.11893127     -2.21005364      3.13885514
    N     -1.91517407     -1.38541513      3.11315901
    C      2.97900390      1.71316798      3.04466595
    H      2.75037044      2.13500273      2.08827567
    H      4.03147130      1.78489584      3.22373738
    H      2.45042511      2.24793531      3.80593296
    C      2.55405643      0.23313896      3.06776862
    N      2.23766372     -0.86880993      3.08496962
    C      3.07574838     -2.25117075      0.12092145
    H      2.14217681     -2.57817306      0.52885991
    H      3.27536321     -1.25085732      0.44407166
    H      3.85853071     -2.89790773      0.45838582
    C      3.00547593     -2.28941770     -1.41699889
    N      2.95315489     -2.31789430     -2.56205048
    C     -3.48883444     -1.53418184      0.12983367
    H     -2.72706166     -2.19400594      0.48932578
    H     -4.44504637     -1.87604682      0.46700748
    H     -3.31101990     -0.54722875      0.50293510
    C     -3.46490738     -1.51297299     -1.40983437
    N     -3.44709259     -1.49718204     -2.55618722
    C     -0.38808924     -3.33446972     -3.09417480
    H      0.25041028     -2.54460939     -3.43083369
    H     -1.38398931     -3.16233865     -3.44553365
    H     -0.03167170     -4.26840652     -3.47578677
    C     -0.38667444     -3.37484745     -1.55470488
    N     -0.38562105     -3.40491050     -0.40849955
    C     -2.64918330      1.88220134     -3.20661487
    H     -3.63067481      2.02518989     -3.60802349
    H     -2.27956370      0.92236161     -3.50155237
    H     -1.99727307      2.64500753     -3.57815068
    C     -2.70680867      1.95998588     -1.66966045
    N     -2.74971337      2.01790000     -0.52532803
    C     -2.89341208      1.82026424      3.06500359
    H     -3.16909756      1.38162262      2.12879248
    H     -3.47705897      2.70144838      3.23164663
    H     -3.07229158      1.11955673      3.85361642
    C     -1.39916045      2.19182948      3.03759330
    N     -0.28662219      2.46847669      3.01718509
    C      0.00206192      0.01230708      0.52941316
    H     -0.98193139      0.23673515      0.88478536
    H      0.68329105      0.76564869      0.86601735
    H      0.30898368     -0.94059496      0.90713768
    C     -0.00392193     -0.02348378     -1.01015925
    N     -0.00837717     -0.05013170     -2.15644089
    C      0.41403346      3.79093954     -0.00920224
    H     -0.54333144      3.47468269      0.34903542
    H      0.59132222      4.80223021      0.29206006
    H      1.17440639      3.15858131      0.39927687
    C      0.44239143      3.70073337     -1.54629647
    N      0.46350522      3.63357077     -2.69073299
