60
Energy:   -252.49580683
    C      1.92224043      1.23997778     -3.56590419
    H      0.89927858      1.51129603     -3.72349748
    H      2.51128316      1.57278318     -4.39486035
    H      2.27878699      1.69938557     -2.66772931
    C      2.03359927     -0.29071521     -3.43871066
    N      2.11651099     -1.43038571     -3.34400930
    C      0.06216232     -3.04593368      3.74921914
    H     -0.41733328     -2.14242613      4.06331826
    H      0.06458122     -3.74780911      4.55684785
    H     -0.46832638     -3.46079689      2.91773291
    C      1.51230589     -2.73903976      3.33148747
    N      2.59200369     -2.51054328      3.02046725
    C      2.96847114      0.75807631      2.58857703
    H      3.13604382      1.73635866      2.98830596
    H      3.74762025      0.10123468      2.91474390
    H      2.02434641      0.38951600      2.93163806
    C      2.96473332      0.82589341      1.05007553
    N      2.96195034      0.87638633     -0.09540877
    C     -1.15245529     -2.89130331     -3.26520644
    H     -0.15512076     -3.19612021     -3.50460291
    H     -1.84522865     -3.41521845     -3.89008810
    H     -1.35738682     -3.11557998     -2.23924243
    C     -1.29584775     -1.37575524     -3.49791364
    N     -1.40260996     -0.24736081     -3.67117473
    C     -2.92093428     -1.95670673      1.52566563
    H     -1.86021394     -1.82738965      1.58088903
    H     -3.19754935     -2.85630309      2.03469370
    H     -3.40647402     -1.12219500      1.98690356
    C     -3.35064623     -2.04915359      0.04972484
    N     -3.67058631     -2.11798447     -1.04918017
    C      2.74782507     -2.88709939     -0.43685927
    H      2.97458980     -1.85456931     -0.60226658
    H      2.98079622     -3.44890255     -1.31720054
    H      3.32886758     -3.25284913      0.38382082
    C      1.24987951     -3.03818832     -0.11292832
    N      0.13459096     -3.15068090      0.12825299
    C     -3.93675131      1.38550667     -2.12129442
    H     -3.07647377      1.86184035     -2.54311070
    H     -4.81572472      1.93269414     -2.39127719
    H     -4.01012982      0.38567492     -2.49526123
    C     -3.80423277      1.35141156     -0.58738557
    N     -3.70556669      1.32602621      0.55467929
    C     -1.56315813      2.85671050      2.60760071
    H     -1.06152193      3.52946920      3.27142074
    H     -2.61846098      2.91007239      2.77608658
    H     -1.34939669      3.12904424      1.59515838
    C     -1.07394784      1.41968010      2.86686296
    N     -0.70970855      0.34974564      3.05989549
    C     -0.28630079      0.14220081     -0.47497624
    H     -1.25547965     -0.30689511     -0.53746919
    H      0.08253605      0.05674847      0.52580165
    H      0.38196035     -0.35690218     -1.14521676
    C     -0.38405371      1.62988857     -0.86076051
    N     -0.45683521      2.73753972     -1.14799443
    C      2.29761624      4.47203547     -0.48207369
    H      2.69079090      3.59918864     -0.96004051
    H      3.04665933      5.23587086     -0.46234930
    H      1.44494969      4.82258682     -1.02518749
    C      1.88087823      4.12439795      0.95913330
    N      1.57059783      3.86556602      2.03217741
