60
Energy:   -252.48146818
    C      2.87536063      0.97801436     -3.21168754
    H      3.72526246      0.57064515     -3.71826171
    H      2.76399709      2.00925295     -3.47445021
    H      1.99664108      0.43966930     -3.49967305
    C      3.07711718      0.85492304     -1.68993105
    N      3.22733411      0.76327595     -0.55691417
    C     -0.71573549     -3.56226828      2.90931364
    H     -0.01221357     -3.54124203      3.71523857
    H     -0.19015224     -3.58740323      1.97763259
    H     -1.33082941     -4.43355437      2.99544796
    C     -1.59945428     -2.30235195      2.96633952
    N     -2.25742308     -1.36428698      3.00879787
    C      3.48547565      0.55733610      3.02029991
    H      3.17487698      1.16168675      2.19374746
    H      4.54023861      0.38733430      2.96136290
    H      3.25595033      1.06059872      3.93623874
    C      2.74477890     -0.79212592      2.97647548
    N      2.19329650     -1.79686174      2.94384620
    C      2.50641618     -2.84811637     -0.31088998
    H      3.21449813     -3.63609914     -0.16054609
    H      1.57486028     -3.11423930      0.14329202
    H      2.87543340     -1.94741561      0.13347869
    C      2.29694229     -2.62732753     -1.82051675
    N      2.14097945     -2.46294021     -2.94450250
    C     -3.58434923     -0.28301811     -0.04752324
    H     -2.97548869     -1.08584274      0.31256237
    H     -4.55519490     -0.34404166      0.39816040
    H     -3.13154446      0.65148208      0.21050062
    C     -3.71506184     -0.38470440     -1.57859284
    N     -3.81238332     -0.46041446     -2.71854375
    C     -1.32642142     -2.91536041     -3.23982161
    H     -0.96945758     -3.80660475     -3.71222030
    H     -0.72517638     -2.08455642     -3.54505633
    H     -2.34336018     -2.74344395     -3.52474155
    C     -1.24189413     -3.07580296     -1.71053638
    N     -1.17895973     -3.19525973     -0.57191401
    C     -1.99971484      2.54529322     -3.35001884
    H     -2.56390244      3.14594316     -4.03252318
    H     -2.48401005      2.53915732     -2.39591214
    H     -1.93591931      1.54483240     -3.72406077
    C     -0.58249871      3.12955418     -3.20258216
    N      0.47268312      3.56456302     -3.09280885
    C     -2.14172931      1.90592999      3.75086920
    H     -2.37311737      1.10673311      4.42365750
    H     -2.60655780      1.72167465      2.80488636
    H     -2.50585801      2.82793427      4.15363150
    C     -0.61562207      1.99436922      3.56438813
    N      0.52063414      2.06021626      3.42554450
    C      0.09294688     -0.13261479      0.73462024
    H      0.93547594      0.45061429      1.04266052
    H      0.26428298     -1.16119479      0.97454987
    H     -0.78368887      0.21095572      1.24291952
    C     -0.10456122      0.01387318     -0.78562047
    N     -0.25161497      0.12294013     -1.91750878
    C      0.94780108      3.70841617      0.24699778
    H      1.38052407      3.64839647      1.22375191
    H      1.01105609      4.71516163     -0.10987962
    H      1.47836218      3.06005582     -0.41860936
    C     -0.52965049      3.27899226      0.31281549
    N     -1.62968034      2.95926664      0.36181977
