60
Energy:   -252.47089247
    C      4.02544462      1.29970155     -2.08827416
    H      4.48828744      2.08715436     -2.64558447
    H      3.14514818      0.97048849     -2.59973876
    H      4.70864646      0.48190587     -1.99160683
    C      3.64296517      1.81719422     -0.68916344
    N      3.35819183      2.20249104      0.35253808
    C     -0.66786413     -2.02498999      3.15706412
    H     -0.26658831     -1.04378416      3.30236730
    H     -0.09795820     -2.53632001      2.40963657
    H     -0.62001520     -2.56970150      4.07679176
    C     -2.13450913     -1.91728233      2.69995199
    N     -3.22649300     -1.83708909      2.35961124
    C      2.54767244      1.59815271      3.54474315
    H      1.77639429      2.06871772      2.97150779
    H      3.49184723      2.03935166      3.30230442
    H      2.34886143      1.73167007      4.58759808
    C      2.58496980      0.09372632      3.21777200
    N      2.61273939     -1.02638752      2.97432712
    C      2.92252563     -3.55237898      0.71382939
    H      3.08127834     -4.56032166      0.39172799
    H      1.92869198     -3.45293169      1.09763144
    H      3.62724578     -3.30790686      1.48096822
    C      3.11014803     -2.59668015     -0.47908200
    N      3.24984144     -1.88511894     -1.36725875
    C      0.71335027     -0.08389565      0.22434487
    H      0.91069800     -1.01614549      0.71103192
    H      0.91851336      0.72101927      0.89882182
    H      1.33807383      0.00668886     -0.63960769
    C     -0.76510198     -0.03100243     -0.20341822
    N     -1.86587688      0.00837897     -0.52190728
    C      0.41128841     -1.29057747     -3.33140765
    H      0.62377117     -0.26057882     -3.13429337
    H      0.97688575     -1.61545175     -4.17961483
    H      0.67752473     -1.87924713     -2.47848014
    C     -1.09174927     -1.45818548     -3.62189911
    N     -2.21082915     -1.58297726     -3.83818320
    C     -3.02332396      1.80228321     -3.05511753
    H     -3.42013647      0.85348612     -2.75978029
    H     -2.01410662      1.67867703     -3.38843566
    H     -3.61503718      2.20429714     -3.85083063
    C     -3.05310443      2.76714445     -1.85521924
    N     -3.07527734      3.48552751     -0.96184042
    C     -3.54559920      1.66782538      2.04223450
    H     -3.77659876      2.61201158      1.59496299
    H     -4.16449241      1.51969863      2.90242561
    H     -3.72438268      0.88492581      1.33512501
    C     -2.06507172      1.64888493      2.46564876
    N     -0.96275171      1.63478290      2.78089992
    C     -3.07897307     -3.23857266     -0.88286963
    H     -3.66347590     -3.43842465     -0.00919016
    H     -3.31458592     -3.95559875     -1.64132811
    H     -3.29862792     -2.25471365     -1.24157881
    C     -1.58247809     -3.33497532     -0.53242801
    N     -0.46826957     -3.40675149     -0.27150830
    C      0.17595264      3.82858812     -0.12115969
    H     -0.17567573      4.80183432     -0.39328008
    H      1.08782226      3.92032530      0.43108770
    H     -0.55938681      3.33976255      0.48317841
    C      0.42796361      2.99935010     -1.39413054
    N      0.61559723      2.38194470     -2.34191519
