60
Energy:   -252.38677161
    C      3.69154838     -1.86655247      0.74907681
    H      4.42538512     -2.62059847      0.94349502
    H      3.48470195     -1.32920723      1.65094916
    H      4.06302100     -1.18999078      0.00801577
    C      2.39843108     -2.52840961      0.23781095
    N      1.43564648     -3.02119234     -0.14284973
    C      1.71991085      1.65020508      3.87854022
    H      0.90784961      1.03590785      4.20731924
    H      2.17051165      2.12792545      4.72331312
    H      2.44778004      1.04335435      3.38171257
    C      1.19255520      2.72018699      2.90456140
    N      0.79991494      3.51683716      2.17938990
    C     -4.87581760      0.02268424      0.91576942
    H     -4.70740751      0.36361644     -0.08438230
    H     -4.37255814      0.67038399      1.60287498
    H     -5.92556053      0.02940816      1.12287724
    C     -4.33167357     -1.40988669      1.06824172
    N     -3.92653360     -2.47650086      1.18176428
    C      2.48205592     -2.32146459     -3.57343663
    H      2.08211209     -3.08868776     -2.94390210
    H      3.52279635     -2.50449809     -3.74153536
    H      1.96401320     -2.32220520     -4.50966858
    C      2.30538180     -0.95273699     -2.89008386
    N      2.17383988      0.06634293     -2.38129667
    C     -2.37806901      3.57497488      0.61784307
    H     -2.94292790      2.67353209      0.50279744
    H     -3.03958413      4.41568994      0.59559365
    H     -1.85939649      3.55391455      1.55348957
    C     -1.35950609      3.69268879     -0.53118826
    N     -0.60113970      3.78033214     -1.38669432
    C     -0.86832749      1.24745607     -3.65513515
    H     -1.35651879      1.96731047     -4.27833583
    H     -0.61470753      0.38584015     -4.23667965
    H      0.02238103      1.67604631     -3.24544279
    C     -1.81267624      0.83463641     -2.51085137
    N     -2.51578681      0.52727340     -1.65888009
    C     -0.94931153     -3.00793876      2.78295304
    H     -1.01263862     -3.88421473      3.39371510
    H     -0.94721848     -3.29166113      1.75125719
    H     -1.79065769     -2.37609332      2.97739347
    C      0.34973154     -2.24779206      3.10893475
    N      1.31692816     -1.68182828      3.35164294
    C     -1.76252556     -2.98613346     -1.28770517
    H     -2.77274429     -3.32558010     -1.38327855
    H     -1.73202308     -2.13499611     -0.63999079
    H     -1.16055367     -3.76921666     -0.87623263
    C     -1.21885507     -2.59553045     -2.67459077
    N     -0.81406767     -2.30470875     -3.70719015
    C      0.26342823      0.32567928      0.34662391
    H      1.19042989      0.12513740      0.84195316
    H      0.33893871      1.24706476     -0.19212097
    H      0.04411317     -0.46922853     -0.33522766
    C     -0.86379211      0.43227657      1.39046841
    N     -1.70305889      0.51164310      2.16765808
    C      2.70931254      3.26364945     -0.88765915
    H      3.51438856      3.79028636     -1.35606745
    H      2.08125355      3.95883370     -0.37078405
    H      2.13693400      2.75142853     -1.63258305
    C      3.27833857      2.24235375      0.11472026
    N      3.70200431      1.48195268      0.86103729
