60
Energy:   -252.30669821
    C      2.72700858     -1.75455160     -0.69934609
    H      3.01272220     -2.78568192     -0.69316809
    H      3.24073992     -1.24682031     -1.48876876
    H      1.67099962     -1.67797223     -0.85387687
    C      3.09626962     -1.11146414      0.65035195
    N      3.37120125     -0.63265630      1.65526350
    C     -3.91278501     -0.80502987     -2.93834386
    H     -3.03272152     -1.28550611     -3.31188236
    H     -3.95856069      0.19634709     -3.31257355
    H     -4.77820818     -1.34588227     -3.25993447
    C     -3.86797331     -0.77631432     -1.39926384
    N     -3.83460896     -0.75493429     -0.25334880
    C      0.87071608      1.11245731      3.32602926
    H      1.93049186      1.09016062      3.18015832
    H      0.64318227      1.68333259      4.20194528
    H      0.40300145      1.56262074      2.47544417
    C      0.34606826     -0.32498717      3.49951709
    N     -0.04455589     -1.39522993      3.62868666
    C     -3.58616274     -0.89472121      3.21313450
    H     -2.80974930     -1.63006582      3.17638308
    H     -4.26762885     -1.05481557      2.40389237
    H     -4.11050737     -0.97580292      4.14232100
    C     -2.96815052      0.51074106      3.09339861
    N     -2.50801233      1.55717161      3.00424979
    C     -1.98676892      2.25237410     -0.23094311
    H     -2.15701180      2.53909453     -1.24765789
    H     -1.72582839      3.11604222      0.34428425
    H     -2.87631678      1.81264577      0.16936013
    C     -0.83701975      1.22955282     -0.17166859
    N      0.01902078      0.46801589     -0.12753602
    C      2.88766277      2.55740899      0.27042453
    H      1.91115835      2.39701654      0.67738098
    H      3.09558801      3.60670698      0.24512759
    H      3.61428506      2.06446298      0.88191727
    C      2.94804946      1.98752227     -1.15897484
    N      2.99301010      1.56321570     -2.22322765
    C      0.79355896      4.06087469     -3.79591253
    H      1.24076971      4.93941168     -4.21193595
    H     -0.15314191      3.88706179     -4.26329421
    H      1.43416667      3.22056915     -3.96445762
    C      0.59045475      4.25601098     -2.28188792
    N      0.43923443      4.40129882     -1.15462779
    C     -0.96827666     -2.73930493      0.60551683
    H     -0.89240435     -3.75044792      0.94717955
    H     -1.86713271     -2.30080145      0.98587400
    H     -0.12424449     -2.18106529      0.95319096
    C     -0.99857070     -2.71857984     -0.93404569
    N     -1.02112599     -2.70314906     -2.08031996
    C      2.60671076     -3.42316018      3.86976672
    H      1.75004127     -3.43385232      4.51078407
    H      2.97798141     -2.42303477      3.78726597
    H      3.36758160     -4.05329733      4.28074340
    C      2.21023631     -3.94027891      2.47441866
    N      1.91504306     -4.32529731      1.43551860
    C      0.59974215     -0.27610351     -3.67156903
    H      0.28908603     -1.20176714     -4.10922165
    H      0.92043437     -0.44725375     -2.66520767
    H      1.40931882      0.13286625     -4.23922072
    C     -0.57988966      0.71387956     -3.67309041
    N     -1.45817916      1.45096695     -3.67422314
