60
Energy:   -252.22323900
    C     -3.28188504     -1.59464289      3.39453085
    H     -3.15965193     -0.62992225      2.94813045
    H     -3.81598134     -1.49597405      4.31643360
    H     -3.83143788     -2.22810398      2.72998753
    C     -1.89816217     -2.21341951      3.66660901
    N     -0.86791760     -2.67412683      3.86918357
    C     -2.08829041      0.89684454     -0.10180947
    H     -2.56126513      0.35745621      0.69207674
    H     -2.68510250      0.82487908     -0.98698482
    H     -1.98607287      1.92485685      0.17683250
    C     -0.69571146      0.29716667     -0.37145799
    N      0.34112686     -0.14932077     -0.57222357
    C      3.49359156     -1.06138583     -1.89749864
    H      3.14200484     -1.98041436     -2.31782412
    H      4.43887768     -0.80951056     -2.33096385
    H      2.78862806     -0.28287510     -2.10206304
    C      3.65372899     -1.22165764     -0.37425573
    N      3.77295858     -1.34098728      0.75986785
    C      0.30093664     -1.27363940     -4.02320206
    H      0.86609285     -1.31366659     -3.11551464
    H      0.81556656     -0.66519859     -4.73724331
    H      0.18490324     -2.26253836     -4.41501093
    C     -1.08614934     -0.66845377     -3.73799540
    N     -2.11889791     -0.21786557     -3.52564608
    C      2.69241232      2.34435691      0.17817255
    H      3.33017038      2.88217300      0.84818649
    H      3.14680604      2.30158771     -0.78960647
    H      2.54440808      1.35087060      0.54692559
    C      1.33354321      3.06173832      0.07600276
    N      0.32180339      3.59586138     -0.00006729
    C      1.39984665     -0.06454149      3.04317661
    H      1.39381012     -0.90027312      3.71132061
    H      2.15009361      0.63324996      3.35158490
    H      1.61370101     -0.40279262      2.05083011
    C      0.02094711      0.62081921      3.06590853
    N     -1.00570629      1.13110140      3.08283347
    C     -0.37819378      4.53504535      3.38509657
    H     -1.06570963      3.85986147      3.85022973
    H     -0.67767923      4.70763063      2.37246541
    H     -0.37309525      5.46257362      3.91854236
    C      1.03501471      3.92346321      3.40532130
    N      2.08721267      3.46811250      3.42037953
    C      0.72947925     -3.24998230      0.97982540
    H      0.16161758     -2.36616248      1.18303918
    H      1.72257046     -3.13112903      1.36001331
    H      0.26445044     -4.08939671      1.45314426
    C      0.78676055     -3.48495315     -0.54106499
    N      0.82940908     -3.65989962     -1.67343701
    C     -2.73960154     -3.48503630     -2.29104920
    H     -3.25111799     -2.80617523     -2.94097131
    H     -3.26096835     -4.41916687     -2.26923588
    H     -1.74376638     -3.64068531     -2.65019375
    C     -2.68627988     -2.89361978     -0.87013988
    N     -2.64657948     -2.45328330      0.18779170
    C     -0.71048721      3.06499327     -3.20668594
    H     -1.42420609      2.40888286     -2.75388944
    H     -1.03468430      3.31751721     -4.19462673
    H     -0.62361472      3.95629445     -2.62107987
    C      0.65830689      2.36304742     -3.27931332
    N      1.67743632      1.84041683     -3.33338771
