60
Energy:   -252.12018971
    C      1.90654879     -1.81127548     -2.19449097
    H      1.50539652     -2.53004528     -2.87811880
    H      2.88185722     -1.51507888     -2.51997542
    H      1.26623206     -0.95466474     -2.16115013
    C      2.00177075     -2.43596619     -0.79010701
    N      2.07266782     -2.90107682      0.25552068
    C     -4.42865024     -0.49234472      1.58965466
    H     -4.37451385      0.26503830      0.83577112
    H     -4.17444302     -0.06937817      2.53906347
    H     -5.42289362     -0.88581166      1.62918890
    C     -3.44146554     -1.62486948      1.25134409
    N     -2.70646167     -2.46808564      0.99945650
    C      1.00520229      3.51447652      3.00345723
    H      1.59230313      4.28702915      3.45442865
    H      0.25020876      3.19331039      3.69028776
    H      0.54246073      3.89072590      2.11508470
    C      1.91284579      2.32329744      2.64446468
    N      2.58862764      1.43641047      2.37717841
    C      4.65615738     -1.14442486      1.83911657
    H      3.63085313     -1.38548571      2.02763984
    H      4.94378765     -0.31076679      2.44507213
    H      5.27042533     -1.98746385      2.07756831
    C      4.83377016     -0.78397527      0.35246604
    N      4.96601094     -0.51560417     -0.75441286
    C     -0.66936256     -5.07135108      0.45345435
    H     -0.12292145     -5.96441254      0.67423370
    H     -1.69735136     -5.20784096      0.71709923
    H     -0.26241130     -4.25627792      1.01465442
    C     -0.56199926     -4.76266226     -1.05146570
    N     -0.48206241     -4.53282941     -2.17194707
    C     -1.92053497     -1.51526451     -2.34949391
    H     -1.27663049     -1.25117130     -3.16223124
    H     -2.53511260     -2.34304030     -2.63581657
    H     -1.32948298     -1.78691352     -1.49992728
    C     -2.81341836     -0.31300933     -1.99040931
    N     -3.47821062      0.58212430     -1.72305451
    C     -1.46482472      3.15824464     -3.32057627
    H     -2.41349122      2.81497739     -2.96406591
    H     -1.59675545      3.66618419     -4.25304116
    H     -1.03702620      3.82994322     -2.60593752
    C     -0.52528088      1.95449366     -3.52017821
    N      0.17425222      1.05824633     -3.66879093
    C     -2.27218037      2.96274010      0.33650336
    H     -3.29568252      2.95683004      0.02456011
    H     -1.68237146      2.41031227     -0.36481543
    H     -1.91921225      3.97178895      0.38268796
    C     -2.15599632      2.31405206      1.72837445
    N     -2.06949201      1.83107434      2.76468573
    C      0.14636887     -1.05033408      2.41410777
    H     -0.19671925     -2.06063431      2.33358337
    H     -0.42547454     -0.53778615      3.15921772
    H      1.17971144     -1.04563217      2.69174081
    C     -0.02405483     -0.34070883      1.05801494
    N     -0.15094301      0.18763942      0.04834219
    C      2.60860097      1.82437001     -1.17106773
    H      2.47409111      1.51447824     -2.18633832
    H      2.44031987      0.99282174     -0.51906463
    H      3.60683702      2.18582747     -1.03775465
    C      1.60767813      2.94696385     -0.84010468
    N      0.86244558      3.78278599     -0.59368765
