60
Energy:   -252.11505126
    C      3.83878396     -1.19191531      1.20366059
    H      3.19774178     -1.92473563      1.64743924
    H      4.85966089     -1.44544821      1.39969746
    H      3.67407613     -1.16712849      0.14670457
    C      3.52916145      0.19202395      1.80403216
    N      3.29863343      1.22242964      2.25103609
    C     -1.56905235     -3.47909997      2.69257663
    H     -1.99710905     -4.41195973      2.99496761
    H     -1.58242233     -2.79673581      3.51665156
    H     -0.55913320     -3.63608490      2.37584625
    C     -2.38725801     -2.89263156      1.52716069
    N     -2.99644931     -2.45597917      0.65945555
    C      0.46943738      1.01101722      4.38171030
    H     -0.24712719      1.45938692      3.72566150
    H      1.36265184      1.60007697      4.39040606
    H      0.06517465      0.96154210      5.37116618
    C      0.79703029     -0.41090101      3.88933704
    N      1.04093810     -1.46958377      3.52274277
    C      2.95838957     -2.93230298     -2.75985543
    H      2.68277806     -3.73646870     -2.11004317
    H      3.35950705     -2.12707845     -2.18053054
    H      3.69619797     -3.27302579     -3.45587685
    C      1.71586001     -2.44343986     -3.52714491
    N      0.79074028     -2.07945904     -4.09842681
    C     -2.17482182     -2.47840160     -2.59484228
    H     -3.08954267     -2.90524605     -2.23989191
    H     -1.35184823     -2.90065160     -2.05695892
    H     -2.06442914     -2.68850224     -3.63818799
    C     -2.20165733     -0.95394977     -2.37821715
    N     -2.22163758      0.18107392     -2.21692989
    C      0.03372488     -0.29840927      0.44461220
    H     -0.22825409      0.24079194     -0.44168868
    H      0.82993250      0.20871458      0.94837597
    H     -0.81702122     -0.35723474      1.09088592
    C      0.48927424     -1.71967300      0.06502798
    N      0.82845145     -2.77786845     -0.21758974
    C     -3.65307509      0.95305311      1.32840605
    H     -4.71449081      0.81790542      1.32275317
    H     -3.22638844      0.46131163      0.47927243
    H     -3.42634167      1.99792166      1.28668349
    C     -3.06586531      0.35147420      2.61871124
    N     -2.62866094     -0.09642865      3.57940211
    C     -2.58833846      3.44580152     -1.66435546
    H     -3.14214871      4.30333464     -1.34368220
    H     -2.54570731      2.73098506     -0.86929627
    H     -3.07009316      3.00700332     -2.51304129
    C     -1.15925348      3.87193836     -2.04870363
    N     -0.09523475      4.18921660     -2.33486831
    C      0.96800159      1.34178278     -3.75053023
    H      1.22745229      2.34294468     -4.02486646
    H     -0.06474780      1.30422407     -3.47319087
    H      1.13826038      0.68890793     -4.58099122
    C      1.83592981      0.89456547     -2.55960736
    N      2.48214182      0.56159186     -1.67291115
    C      1.76348355      3.59571118      0.52267511
    H      2.35742989      3.85479774      1.37414565
    H      1.68538202      4.44127516     -0.12834010
    H      2.22479982      2.78425162     -0.00041166
    C      0.35709959      3.17373461      0.98702401
    N     -0.69001720      2.85955387      1.33275288
