60
Energy:   -252.09540817
    C      4.50566752      0.22157033     -1.08025908
    H      4.14280989      1.01154887     -1.70409274
    H      4.06853731     -0.70531692     -1.38798674
    H      5.57041460      0.15968762     -1.16618498
    C      4.12461142      0.50768186      0.38416450
    N      3.84089784      0.72070490      1.47449443
    C     -0.13680459     -4.00116695      2.07705108
    H     -0.31336625     -4.97379109      2.48659772
    H     -0.57182879     -3.26094909      2.71558891
    H      0.91701671     -3.83201320      2.00124366
    C     -0.77329417     -3.91013044      0.67769645
    N     -1.24718959     -3.84234962     -0.36418667
    C      2.00925445     -1.17599964      3.42201690
    H      2.02751481     -1.46918510      2.39312962
    H      1.55776882     -1.95082738      4.00571356
    H      3.00961326     -1.00933968      3.76319983
    C      1.19300463      0.12127753      3.57171047
    N      0.58526954      1.08715936      3.68316414
    C      0.51247788      2.02634906     -3.80561016
    H     -0.31395104      1.73226705     -4.41833457
    H      1.03429142      2.83434992     -4.27437913
    H      0.15250548      2.34172007     -2.84860437
    C      1.46898918      0.83278949     -3.62644080
    N      2.18115533     -0.05586987     -3.49304107
    C     -4.04036163     -1.98180327     -0.52690474
    H     -3.33721319     -2.03137302     -1.33190492
    H     -4.91865427     -2.53535468     -0.78590660
    H     -3.60251874     -2.39988645      0.35536458
    C     -4.41845205     -0.51202977     -0.26534499
    N     -4.69995755      0.58228341     -0.07060187
    C      1.24820568     -3.10079646     -2.57217170
    H      0.40476726     -2.45474348     -2.69916524
    H      0.92768322     -4.12030450     -2.62478159
    H      1.96248672     -2.91109930     -3.34593955
    C      1.89540965     -2.83632197     -1.20002729
    N      2.37728243     -2.63940869     -0.17840342
    C     -3.25992808      2.83336049     -2.04724634
    H     -3.14314245      1.86791680     -2.49354197
    H     -3.07294806      3.59010993     -2.78023191
    H     -4.25791766      2.93596492     -1.67524068
    C     -2.26076278      2.98605079     -0.88537097
    N     -1.51683879      3.09973566     -0.02030195
    C     -2.70810169      1.49191789      2.75833211
    H     -1.82407865      2.08502758      2.65051584
    H     -3.10945162      1.62534481      3.74119252
    H     -3.43289907      1.79686308      2.03267634
    C     -2.35962313      0.00735255      2.54332414
    N     -2.10016499     -1.09797383      2.38324093
    C      0.24676243      0.00041030      0.11841897
    H      1.25200757      0.14352224     -0.21907377
    H      0.18994181     -0.89604464      0.69983022
    H     -0.04992396      0.83460602      0.71924656
    C     -0.69125496     -0.11595736     -1.09738610
    N     -1.38965154     -0.20259838     -2.00260823
    C      1.58695453      3.54094066      1.55794835
    H      0.57291850      3.28322527      1.78203293
    H      1.73231846      4.58888429      1.71789392
    H      2.24471678      2.98818966      2.19568986
    C      1.89050756      3.19915038      0.08735835
    N      2.11651659      2.94467198     -1.00756275
