60
Energy:   -252.01545177
    C      1.47426792      0.35992946     -2.85586663
    H      1.58406954      1.00113615     -3.70539460
    H      0.51475022      0.51965618     -2.41009510
    H      1.55795825     -0.66066918     -3.16614624
    C      2.57677431      0.67608374     -1.82818666
    N      3.39764043      0.91147498     -1.06303221
    C     -0.09571547     -0.80133340      4.83041315
    H      0.52605669     -1.64054074      4.59796831
    H     -0.41813408     -0.86746010      5.84853524
    H      0.45858533      0.10303987      4.68984755
    C     -1.32434178     -0.79995064      3.90193295
    N     -2.23910992     -0.79892110      3.21063725
    C      2.91114786      1.34942514      2.19247525
    H      2.11701176      1.66018051      1.54619425
    H      3.85070684      1.51439467      1.70779693
    H      2.87404858      1.91455301      3.10030410
    C      2.75524259     -0.14862746      2.51361691
    N      2.63916402     -1.26399571      2.75272147
    C      4.35427977     -2.38057609     -0.00941837
    H      4.49526716     -1.32465660      0.09086511
    H      5.22543405     -2.81625193     -0.45233582
    H      4.19137559     -2.81194894      0.95612748
    C      3.13201042     -2.65240934     -0.90594742
    N      2.22197534     -2.85480155     -1.57345405
    C     -3.69399049     -0.52195395     -0.04490387
    H     -4.55360270     -0.24778474     -0.62005453
    H     -2.83632847      0.00050246     -0.41416564
    H     -3.85428262     -0.26410667      0.98111772
    C     -3.46048243     -2.03960937     -0.16236029
    N     -3.28662506     -3.16957282     -0.24981193
    C     -0.96905007     -3.81150759     -2.87505826
    H     -1.37470728     -4.25714162     -1.99089045
    H      0.09419669     -3.93145437     -2.87932531
    H     -1.38522042     -4.28819402     -3.73788580
    C     -1.31651384     -2.31141922     -2.89963097
    N     -1.57521641     -1.19453525     -2.91792648
    C     -2.20327685      1.97265323     -3.77624467
    H     -2.82586354      1.13915088     -4.02636429
    H     -1.17561255      1.69655717     -3.88838805
    H     -2.42557634      2.79200247     -4.42751179
    C     -2.46634120      2.39039582     -2.31751636
    N     -2.66220456      2.70142416     -1.23142683
    C     -2.22954709      2.40825788      2.07862788
    H     -3.01528770      2.10724940      2.73961636
    H     -2.13154774      1.69068880      1.29097958
    H     -2.46145554      3.36602781      1.66174141
    C     -0.90593662      2.49577558      2.86092960
    N      0.07955154      2.56093648      3.44338879
    C     -0.09740367     -2.43478775      0.84956149
    H     -0.17271838     -2.97767216     -0.06940771
    H     -0.95074933     -2.64599531      1.45955463
    H      0.79204766     -2.72963030      1.36613026
    C     -0.04097184     -0.92510346      0.55078264
    N      0.00104422      0.19892511      0.32832820
    C      0.72529810      3.66645273     -0.31587849
    H      0.38782380      4.61093474      0.05690161
    H      1.72115936      3.48198801      0.02927686
    H      0.07659942      2.89169896      0.03603870
    C      0.71135420      3.68766227     -1.85566930
    N      0.70097233      3.70345374     -3.00211354
