60
Energy:   -251.99410284
    C      4.08806191      0.66406693     -2.50821562
    H      4.97799215      0.23111615     -2.91500546
    H      4.00422222      1.67968181     -2.83440026
    H      3.23633079      0.11018597     -2.84387775
    C      4.15375033      0.62264067     -0.97017502
    N      4.20265834      0.59179693      0.17496612
    C     -2.28060584      0.89635504      4.16781954
    H     -3.22878748      1.06265501      3.70070490
    H     -2.37848340      1.01705973      5.22647409
    H     -1.94570234     -0.09659398      3.95150732
    C     -1.25707141      1.91238903      3.62777118
    N     -0.49500351      2.66887251      3.22568064
    C      2.43661947      0.60095927      3.34620620
    H      2.15182048      1.55317933      3.74252258
    H      2.53277244      0.67149616      2.28287264
    H      3.37307699      0.30384322      3.77007938
    C      1.36032803     -0.44342302      3.69615241
    N      0.55898013     -1.22101311      3.95670328
    C      2.45198107     -2.51825609      0.81965858
    H      2.91225958     -1.64878167      1.24044131
    H      3.07062425     -3.37230240      1.00072380
    H      1.49423757     -2.66920769      1.27225121
    C      2.27757476     -2.32320324     -0.69795034
    N      2.14772134     -2.17797753     -1.82787916
    C     -4.87172295     -0.17951427     -1.95363771
    H     -5.83508583     -0.13825372     -2.41745848
    H     -4.97798080     -0.04174778     -0.89787791
    H     -4.42388620     -1.13211023     -2.14573734
    C     -3.97681723      0.93384868     -2.52910855
    N     -3.31051925      1.76279800     -2.95757276
    C     -0.37792922     -4.63139312     -2.61983105
    H     -1.36572238     -4.39404922     -2.95573689
    H     -0.11872651     -5.61793920     -2.94300263
    H      0.31666193     -3.92794935     -3.02923197
    C     -0.32899553     -4.56553507     -1.08201825
    N     -0.29256218     -4.51650077      0.06295328
    C      0.07201152      0.35604742     -2.96380165
    H      0.59910513      0.10903650     -3.86160905
    H      0.76770842      0.45093462     -2.15639758
    H     -0.44691693      1.28209208     -3.09816551
    C     -0.94102548     -0.75782220     -2.64030436
    N     -1.69527757     -1.58714877     -2.39944591
    C     -1.72312550      3.06378176     -0.23192614
    H     -2.24027864      3.73286985     -0.88749760
    H     -1.02264389      2.48311874     -0.79500257
    H     -1.20176247      3.62692949      0.51369059
    C     -2.73735630      2.12600232      0.44888633
    N     -3.49249723      1.42778290      0.95578216
    C     -1.67385228     -1.62078164      1.16815649
    H     -1.93778167     -2.17493189      0.29170971
    H     -2.54174889     -1.12714257      1.55283170
    H     -1.28557884     -2.28835749      1.90875444
    C     -0.60369049     -0.57287873      0.81003187
    N      0.19309361      0.20733262      0.54339182
    C      1.98223515      3.29883064      0.80725344
    H      1.71375888      4.28414226      1.12659916
    H      2.99257898      3.09392712      1.09381755
    H      1.32981033      2.58521411      1.26550272
    C      1.85350422      3.20270055     -0.72434290
    N      1.75765819      3.13112732     -1.86468600
