60
Energy:   -251.92925700
    C      2.75661579      1.14695020     -3.23604654
    H      2.09557567      0.34152999     -3.47940723
    H      3.70377991      0.98570185     -3.70697985
    H      2.33832160      2.06880852     -3.58261012
    C      2.94684237      1.21144359     -1.70920194
    N      3.08847471      1.25946184     -0.57239672
    C     -0.48296553     -3.06183557      3.56800246
    H     -1.12673359     -2.59239054      4.28220427
    H     -0.26763727     -4.06101461      3.88450536
    H     -0.96657986     -3.08635188      2.61384564
    C      0.82971295     -2.26412802      3.45783050
    N      1.80706175     -1.67019848      3.37580247
    C      3.20384807      1.40617025      2.95717566
    H      3.18818509      0.84115776      3.86569959
    H      4.00986471      2.10921471      2.98823635
    H      3.33984513      0.74407149      2.12770044
    C      1.87059316      2.16043600      2.79870012
    N      0.87792427      2.72202115      2.68070789
    C      3.12391884     -2.34802342      0.27152828
    H      2.23106685     -2.73494368      0.71650943
    H      3.30194753     -1.35678982      0.63299866
    H      3.95152666     -2.97551362      0.52886162
    C      2.96159314     -2.31466601     -1.25952941
    N      2.84073428     -2.28982990     -2.39947145
    C     -3.38941625     -1.07476995     -0.01610293
    H     -3.07846255     -0.05380817      0.06034989
    H     -2.70993654     -1.69631890      0.52876706
    H     -4.37333956     -1.17939146      0.39114191
    C     -3.39878596     -1.49904982     -1.49647410
    N     -3.40576214     -1.81494547     -2.59867772
    C     -0.38491961     -3.58383241     -2.75648663
    H      0.22629826     -4.40083868     -3.07868788
    H      0.01026077     -2.66818032     -3.14418858
    H     -1.38327497     -3.72189656     -3.11582484
    C     -0.39649537     -3.52709938     -1.21757553
    N     -0.40511406     -3.48485906     -0.07178627
    C     -2.38314032      1.41900127     -3.74991867
    H     -2.06494927      0.41697744     -3.94892336
    H     -3.07078594      1.73198205     -4.50760305
    H     -2.86331141      1.45763648     -2.79449094
    C     -1.16031233      2.35510405     -3.74810326
    N     -0.24986130      3.05207511     -3.74675161
    C     -2.68799915      2.42967763      3.21335510
    H     -1.75032894      2.93457478      3.10965539
    H     -3.13360951      2.69368013      4.14964200
    H     -3.33879979      2.71839421      2.41460585
    C     -2.45953065      0.90749817      3.16465365
    N     -2.28942548     -0.22583363      3.12839321
    C      0.12953680     -0.12707482      0.75147773
    H     -0.33804798     -0.98976764      1.17812249
    H     -0.33105187      0.75710624      1.14004050
    H      1.17025261     -0.12582242      1.00009010
    C     -0.03244039     -0.15980440     -0.77963042
    N     -0.15303976     -0.18417305     -1.91961004
    C      0.13831191      3.81797361     -0.44170008
    H      0.11779126      4.42424261     -1.32312903
    H      0.92906703      3.10140359     -0.52001253
    H      0.30282346      4.43855037      0.41429030
    C     -1.20702600      3.08355670     -0.29237591
    N     -2.20869123      2.53674993     -0.18119728
