60
Energy:   -251.89336294
    C      3.31694505      1.06050041     -2.90729655
    H      2.31533183      0.99134281     -3.27728082
    H      3.86532369      0.18871345     -3.19741282
    H      3.78838406      1.93037756     -3.31467611
    C      3.29074426      1.16278456     -1.37092047
    N      3.27123657      1.23893975     -0.22701864
    C     -0.51611020     -3.19188918      3.25245489
    H     -0.99472146     -4.14200289      3.36697729
    H      0.03628953     -2.96157271      4.13942048
    H      0.15041385     -3.22677859      2.41613706
    C     -1.58160869     -2.10570263      3.01473291
    N     -2.37492075     -1.29698737      2.83773809
    C      2.88916487      1.53626354      3.40965500
    H      3.91307195      1.60345074      3.71297059
    H      2.28068507      2.10792694      4.07887274
    H      2.78539900      1.92080911      2.41655055
    C      2.44060462      0.06333546      3.43926207
    N      2.10663113     -1.03332645      3.46130588
    C      3.06408665     -2.40450856      0.45320645
    H      3.88102950     -3.02535137      0.75661832
    H      2.15212719     -2.79286985      0.85620093
    H      3.21872509     -1.40949026      0.81504152
    C      2.97827562     -2.38409159     -1.08426537
    N      2.91438540     -2.36889022     -2.22898303
    C     -3.66193268     -1.13059674     -0.29585813
    H     -4.26911550     -1.33849516     -1.15201668
    H     -4.20493477     -1.37268200      0.59377244
    H     -2.76939137     -1.71907225     -0.34019395
    C     -3.29111786      0.36401086     -0.28022237
    N     -3.01502936      1.47681416     -0.26858083
    C     -0.44284018     -3.22522569     -2.96084207
    H     -0.06378472     -4.14287207     -3.35976845
    H      0.17732129     -2.41408788     -3.28077067
    H     -1.44196437     -3.06988681     -3.31087031
    C     -0.44297363     -3.29550494     -1.42244654
    N     -0.44307298     -3.34783103     -0.27704114
    C     -2.03126579      1.61339043     -3.87885211
    H     -2.52016211      2.13312232     -4.67619729
    H     -0.98465239      1.54091267     -4.08920053
    H     -2.17486733      2.14842535     -2.96342034
    C     -2.62728367      0.19962597     -3.74606381
    N     -3.07104608     -0.85298594     -3.64719688
    C     -2.97966187      2.26389886      3.06946745
    H     -3.33292209      2.70923062      3.97599215
    H     -3.23028516      1.22369283      3.06182000
    H     -3.43817565      2.74740848      2.23228010
    C     -1.45060124      2.42418099      2.98067995
    N     -0.31214609      2.54351832      2.91457362
    C      0.16649985     -0.03081556      0.75657538
    H     -0.79850315      0.22667287      1.14046222
    H      0.89087903      0.67192107      1.11201189
    H      0.43108279     -1.01360947      1.08674365
    C      0.13201655      0.00166677     -0.78269581
    N      0.10634216      0.02585134     -1.92875318
    C      0.18327448      3.53594577     -0.33833408
    H      0.04353449      4.54746052     -0.01862980
    H      0.96102185      3.08316587      0.24045647
    H     -0.72673974      2.98986663     -0.20205945
    C      0.57476172      3.51773096     -1.82763122
    N      0.86624176      3.50416922     -2.93648063
