60
Energy:   -251.86789988
    C      2.49534862      1.33605579     -3.37702753
    H      3.42249545      1.63763140     -3.81788024
    H      1.71845566      2.00212428     -3.68958023
    H      2.25884938      0.34048687     -3.68977300
    C      2.61947773      1.37624674     -1.84256455
    N      2.71189749      1.40617073     -0.70008711
    C      0.06451883     -3.56661026      2.78645539
    H     -0.03686633     -4.39964777      2.12262580
    H      0.07606973     -3.91581314      3.79780252
    H      0.97894223     -3.05227169      2.57625363
    C     -1.12227523     -2.60532919      2.58882297
    N     -2.00589735     -1.88961174      2.44167664
    C      3.26188699      1.74753867      2.60248736
    H      2.65985754      2.54956495      2.22937267
    H      4.03927850      1.52870175      1.90058144
    H      3.69592384      2.03271910      3.53799964
    C      2.38480652      0.49773308      2.80327543
    N      1.73178025     -0.43280399      2.95277127
    C      3.17755327     -2.09573668      0.20479272
    H      3.54080010     -1.15219707      0.55505681
    H      3.85285540     -2.87059647      0.50221233
    H      2.21147953     -2.28407885      0.62446860
    C      3.07324294     -2.06743753     -1.33140991
    N      2.99557916     -2.04636753     -2.47518259
    C     -4.60295781     -0.86457897      0.65860948
    H     -4.11901496     -0.04041957      1.13971319
    H     -4.64010855     -1.69739044      1.32938812
    H     -5.59808551     -0.58305092      0.38408824
    C     -3.81376308     -1.25731710     -0.60413690
    N     -3.22617172     -1.54972849     -1.54430898
    C     -0.39467089     -3.17570202     -3.12082965
    H     -1.32230541     -2.64340203     -3.15325018
    H     -0.47302146     -4.06511081     -3.71050099
    H      0.38570755     -2.55647900     -3.51130555
    C     -0.06996538     -3.55295124     -1.66348639
    N      0.17179264     -3.83383043     -0.57842810
    C     -2.74522450      1.61895478     -3.14275122
    H     -2.51456008      2.24927116     -2.30944734
    H     -3.56075760      0.97489626     -2.88781304
    H     -3.01723405      2.22345726     -3.98268374
    C     -1.51195820      0.76869997     -3.50013197
    N     -0.59373538      0.13564662     -3.76621818
    C     -1.49981079      1.11891873      3.90251374
    H     -2.02998186      1.32234986      4.80939554
    H     -0.95493252      0.20382365      4.00550775
    H     -2.19580386      1.03061442      3.09461828
    C     -0.51926666      2.27027707      3.61181254
    N      0.21079302      3.12751568      3.39537228
    C     -0.18423920     -0.29659450     -0.15683305
    H      0.12250497     -0.21917659     -1.17899481
    H     -0.64077681     -1.25029046      0.00729043
    H      0.66937204     -0.19540419      0.48035411
    C     -1.19721249      0.81895444      0.16102804
    N     -1.95141715      1.64953133      0.39769008
    C      0.43045082      4.11782511      0.19865652
    H     -0.49570101      4.15479418      0.73323696
    H      0.94599749      5.04836360      0.31358631
    H      1.03493395      3.32485620      0.58685692
    C      0.15141101      3.86661950     -1.29487370
    N     -0.05634681      3.67958550     -2.40687484
