60
Energy:   -253.68052564
    C     -1.98039600      0.18613249     -1.16671940
    H     -2.27657455      1.21413471     -1.14697385
    H     -2.69986730     -0.40256986     -0.63691786
    H     -1.92279075     -0.14902285     -2.18123979
    C     -0.60152548      0.03624197     -0.49750423
    N      0.42510629     -0.07535834      0.00075688
    C     -4.02240895     -2.53073436      1.36760387
    H     -4.33955448     -1.86360373      2.14171989
    H     -4.56389414     -3.45033198      1.44527697
    H     -4.21120240     -2.08517350      0.41328125
    C     -2.51489847     -2.80864569      1.51517570
    N     -1.39248840     -3.01556330      1.62504964
    C      1.95841931     -2.86357985      1.67972663
    H      2.69438408     -2.73818676      2.44623339
    H      1.47351000     -3.80950242      1.80217066
    H      1.23362646     -2.07954718      1.74949195
    C      2.64024823     -2.81105161      0.29988964
    N      3.14790086     -2.77194195     -0.72746171
    C     -0.22608918     -0.19189632      3.53066297
    H     -0.56430561     -0.48371432      2.55837079
    H     -0.81576119     -0.68365600      4.27588671
    H      0.80085615     -0.46814393      3.64885623
    C     -0.36865731      1.33346256      3.68736210
    N     -0.47480577      2.46916158      3.80403173
    C      1.24200425      3.26194472      1.04220906
    H      1.33854811      2.25742693      1.39791044
    H      1.27653027      3.93847019      1.87047251
    H      2.04463587      3.48072191      0.36929145
    C     -0.10183035      3.41913317      0.30668178
    N     -1.10237629      3.53616711     -0.24095171
    C      3.86939108      0.59643081     -0.01614482
    H      3.02385689      0.36486258     -0.62961713
    H      4.68289849     -0.05012318     -0.27123837
    H      4.15862462      1.61399300     -0.17680045
    C      3.49920495      0.39574112      1.46516740
    N      3.22358455      0.24631853      2.56807167
    C     -0.24127248     -3.59080242     -1.70150897
    H      0.28340163     -2.69208272     -1.45267132
    H      0.12166375     -3.96905562     -2.63430097
    H     -0.08275040     -4.32024708     -0.93490587
    C     -1.74692381     -3.29002951     -1.82046163
    N     -2.86794966     -3.06609042     -1.90902729
    C     -3.46539872      3.37986946      2.14261196
    H     -4.31416405      3.62684312      2.74552291
    H     -3.57705814      3.81814899      1.17289947
    H     -2.57747608      3.75788729      2.60477534
    C     -3.36104971      1.84955128      2.00536195
    N     -3.28335713      0.71015984      1.90317308
    C      3.06699044     -0.82481573     -3.59893925
    H      3.42305704     -1.74460752     -3.18409010
    H      3.41349685     -0.00678535     -3.00256797
    H      3.43433912     -0.71841187     -4.59825515
    C      1.52710025     -0.83149737     -3.61607293
    N      0.38058201     -0.83647216     -3.62882973
    C     -0.24914410      2.66369065     -3.53880999
    H     -0.11980356      3.09025508     -4.51154531
    H     -0.88873633      3.29277829     -2.95565512
    H     -0.69063271      1.69335849     -3.63069256
    C      1.12065292      2.54089354     -2.84586194
    N      2.14052906      2.44946551     -2.32993061
