60
Energy:   -251.81266866
    C     -2.73886314      1.64564814     -1.47106452
    H     -3.75292519      1.49854607     -1.16294227
    H     -2.61590187      2.64727087     -1.82677723
    H     -2.08587339      1.47967376     -0.63982690
    C     -2.39616065      0.65465446     -2.59893265
    N     -2.14100307     -0.08318538     -3.43868174
    C      2.30487072     -4.29741293     -0.92314899
    H      3.28655588     -4.70707892     -1.03876998
    H      2.23872795     -3.37327321     -1.45839661
    H      1.58314475     -4.98611835     -1.31005409
    C      2.02591949     -4.04664909      0.57047201
    N      1.81822761     -3.85994401      1.68254074
    C      4.09969544      1.89269367     -1.91388677
    H      3.25424537      1.69588368     -2.53949063
    H      4.70271587      1.01175765     -1.84165660
    H      4.67847345      2.68747798     -2.33606328
    C      3.61560438      2.29994768     -0.50982124
    N      3.25517658      2.60316681      0.53556936
    C      2.96450592     -0.65270920      2.12896302
    H      1.89526539     -0.69301689      2.12858172
    H      3.28445514      0.32525701      2.42241435
    H      3.34842434     -1.37539631      2.81833163
    C      3.49037070     -0.96210786      0.71498328
    N      3.88190094     -1.19246923     -0.33778891
    C      0.08904193      3.92304947     -0.36433576
    H      0.94190281      4.33602601      0.13263393
    H     -0.31795140      3.12892269      0.22610321
    H     -0.65067011      4.68489819     -0.49590981
    C      0.51195907      3.37512730     -1.74002555
    N      0.82684011      2.96717433     -2.76428912
    C      1.09965192     -0.61572916     -2.53063491
    H      0.44551371     -1.41242630     -2.81747468
    H      2.10560027     -0.97790674     -2.48827425
    H      1.03514471      0.17482234     -3.24880358
    C      0.68614976     -0.08561813     -1.14513923
    N      0.37827860      0.30907363     -0.11357473
    C     -4.13891682      1.21668802      2.85749927
    H     -4.75939772      0.75664744      2.11704921
    H     -4.75395761      1.68006822      3.60040082
    H     -3.52224324      0.47334242      3.31798827
    C     -3.24823657      2.28174535      2.19120986
    N     -2.58508464      3.07472894      1.69512710
    C     -3.33004412     -3.03141015     -2.47450665
    H     -3.80985484     -2.28053600     -1.88216396
    H     -3.88883681     -3.94209320     -2.41700698
    H     -3.28228894     -2.70593696     -3.49268430
    C     -1.90396086     -3.26984332     -1.94437823
    N     -0.84217704     -3.44736765     -1.54967353
    C     -1.15644117     -2.25192527      1.75124427
    H     -1.04068172     -3.23645907      1.34851220
    H     -1.36141184     -2.31715337      2.79940047
    H     -0.25534942     -1.69565103      1.59797422
    C     -2.32494433     -1.54167067      1.04290906
    N     -3.19494804     -1.01285383      0.51552129
    C      0.67442406      2.25717165      2.90738675
    H      1.50430654      2.43116107      3.56001446
    H      0.09364327      3.15182742      2.82262942
    H      1.03438040      1.97269615      1.94074089
    C     -0.20216578      1.12855144      3.48132637
    N     -0.85482676      0.28824240      3.90865051
