60
Energy:   -251.80607348
    C      2.90747987      2.60306388     -3.64800228
    H      3.69141971      3.30813382     -3.83025181
    H      2.01758249      2.92160153     -4.14951550
    H      3.19966630      1.64178427     -4.01606164
    C      2.63944902      2.51335802     -2.13416202
    N      2.43988787      2.44656794     -1.00703914
    C     -0.86740643      0.10582497      4.92782877
    H      0.01269166     -0.49219648      5.04051361
    H     -1.34962787      0.21315258      5.87695592
    H     -0.59716023      1.07123904      4.55387453
    C     -1.82900558     -0.57741849      3.93782602
    N     -2.54495986     -1.08612430      3.20072397
    C      1.41559757      1.71449004      2.25203358
    H      2.21065083      2.12520432      1.66542956
    H      1.82186353      1.06193284      2.99635621
    H      0.87732981      2.50726339      2.72814000
    C      0.46129744      0.92156064      1.33979774
    N     -0.24922238      0.33118865      0.66059669
    C      1.93454224     -4.37108050     -3.13370097
    H      2.21468484     -3.44719993     -3.59507393
    H      0.88642471     -4.53565548     -3.27249509
    H      2.48377080     -5.17359338     -3.58004183
    C      2.24937407     -4.30889418     -1.62750916
    N      2.48378068     -4.26259364     -0.50608089
    C     -3.16770485     -1.50740420     -0.10624028
    H     -3.97015398     -1.64717597      0.58761809
    H     -2.23352981     -1.56729167      0.41205459
    H     -3.20856659     -2.26881613     -0.85689419
    C     -3.29848158     -0.12417769     -0.77045551
    N     -3.39585080      0.90569732     -1.26499394
    C     -0.02221712     -3.24734026      1.52127986
    H      0.37867633     -4.23813126      1.47110205
    H     -0.03538288     -2.81785815      0.54134575
    H     -1.01934810     -3.28517956      1.90754025
    C      0.85486963     -2.38501322      2.44794641
    N      1.50790059     -1.74297154      3.13789178
    C     -0.18402261      0.18509155     -2.84003407
    H      0.22790987      0.73442867     -2.01939984
    H     -1.12170199      0.61599206     -3.12284361
    H      0.49079528      0.22348419     -3.66951940
    C     -0.39857381     -1.28097719     -2.42026002
    N     -0.55831692     -2.37253200     -2.10771917
    C     -4.18173430      1.93214894      1.98735100
    H     -4.16155156      0.86247312      2.00427702
    H     -4.35003932      2.26990564      0.98610532
    H     -4.96988685      2.28405960      2.61970655
    C     -2.83419605      2.47907802      2.49391713
    N     -1.83089257      2.88629157      2.87107864
    C      3.13210262     -0.96167868     -0.15856305
    H      2.15608419     -1.21482956      0.19949117
    H      3.41332461     -0.00158887      0.22096410
    H      3.83549617     -1.69645716      0.17345681
    C      3.11972920     -0.92161044     -1.69799198
    N      3.11051662     -0.89177782     -2.84416679
    C     -1.09512321      3.58498569     -0.55412487
    H     -1.54289563      2.64285396     -0.31582286
    H     -1.79000531      4.37228270     -0.34869512
    H     -0.21529862      3.72197796      0.03920546
    C     -0.71684394      3.61066552     -2.04672172
    N     -0.43519783      3.62978532     -3.15802791
