60
Energy:   -251.76876355
    C     -0.61883057     -4.08768353     -0.74893895
    H     -0.17294215     -4.37449755     -1.67835889
    H     -1.07933217     -4.94072915     -0.29600348
    H      0.13531774     -3.70070287     -0.09594171
    C     -1.68321021     -3.00409867     -1.00298584
    N     -2.47568924     -2.19732049     -1.19213529
    C      3.44146182     -2.27732166     -0.78951926
    H      4.39122466     -2.50158114     -0.35070447
    H      3.34132603     -2.80758419     -1.71347465
    H      2.66061159     -2.57474778     -0.12115580
    C      3.34247443     -0.76330004     -1.05322367
    N      3.26877382      0.36395788     -1.24956359
    C     -0.07748813      0.11397947     -2.67047239
    H     -0.31796178      0.63306292     -3.57469857
    H      0.62922640      0.68703616     -2.10739185
    H     -0.96656900     -0.02447438     -2.09145182
    C      0.53108646     -1.25861834     -3.01283511
    N      0.98419791     -2.28057980     -3.26773972
    C     -2.04412194      4.57644851     -0.36186101
    H     -1.15508666      4.74081808      0.21041436
    H     -2.75087697      4.02929425      0.22637246
    H     -2.46695052      5.51846517     -0.64243133
    C     -1.69791151      3.77157111     -1.62831698
    N     -1.44014212      3.17230329     -2.57125101
    C      3.09759544      1.31600258      2.27756401
    H      2.29184188      1.43968609      2.97064681
    H      2.75040855      1.52174199      1.28658891
    H      3.88868070      1.99231496      2.52592820
    C      3.61839737     -0.13150700      2.34884761
    N      4.00615808     -1.20924369      2.40192148
    C      1.31208992     -2.86209262      3.59945614
    H      0.70139865     -3.62826481      4.02949863
    H      2.29718905     -2.91674045      4.01357254
    H      1.36266516     -2.99924539      2.53948899
    C      0.70043082     -1.48332547      3.91005925
    N      0.24502282     -0.45677066      4.14131738
    C     -4.01425145      0.55481164     -2.57194843
    H     -3.22180951      0.92887174     -3.18596389
    H     -4.94962368      0.93529283     -2.92580143
    H     -4.02474239     -0.51426066     -2.61523172
    C     -3.79343919      1.00750198     -1.11664317
    N     -3.62903442      1.34455052     -0.03310225
    C     -0.58344644      1.33708268      1.27502729
    H     -1.46283448      1.17709988      1.86322994
    H     -0.83862907      1.88963906      0.39499185
    H      0.13294594      1.88864583      1.84726776
    C      0.01841879     -0.02177085      0.87144912
    N      0.46653480     -1.03349907      0.57096683
    C     -3.01070567     -1.40749569      2.33861825
    H     -4.03820501     -1.54205063      2.60515201
    H     -2.94826669     -1.01910554      1.34355365
    H     -2.55275619     -0.72036140      3.01907973
    C     -2.28084378     -2.76179078      2.40780229
    N     -1.73742842     -3.77012503      2.45931296
    C      2.22675760      3.33751510     -2.63432126
    H      3.02820583      2.63045235     -2.68573308
    H      2.56289283      4.28491739     -3.00084699
    H      1.40878867      2.99357906     -3.23226266
    C      1.76675080      3.48661689     -1.17221237
    N      1.42425483      3.59762995     -0.08360584
