60
Energy:   -251.76452547
    C      4.23236593      2.43901824     -2.64858090
    H      3.36650767      3.05266049     -2.78508310
    H      4.40461797      1.86322846     -3.53384609
    H      5.08246208      3.05951506     -2.45565779
    C      4.00713700      1.49148572     -1.45566261
    N      3.83944383      0.78600469     -0.56748071
    C     -0.24478401     -3.16432754      3.95403752
    H     -0.51709004     -3.95515567      4.62137587
    H      0.05288451     -2.30653501      4.52015102
    H      0.56820152     -3.48335631      3.33583508
    C     -1.45138063     -2.80154265      3.06853668
    N     -2.34974666     -2.53143281      2.40924106
    C      1.60073410      2.84568101      1.45554074
    H      0.73498797      2.32480424      1.80777817
    H      1.76652954      3.71220573      2.06097107
    H      2.45298620      2.20136037      1.51399041
    C      1.38153354      3.27554720     -0.00691137
    N      1.21832876      3.59560212     -1.09577344
    C     -1.74929449     -4.76917237     -0.37694169
    H     -2.51166723     -4.34072286      0.23959624
    H     -1.85136992     -5.83428000     -0.38198407
    H     -1.84681657     -4.39679519     -1.37530223
    C     -0.36477396     -4.38880468      0.17985572
    N      0.66606450     -4.10560365      0.59441670
    C     -3.03088672     -1.31452869     -0.68624370
    H     -3.15263439     -1.76805647     -1.64769585
    H     -3.76212104     -1.70769651     -0.01125147
    H     -2.05067338     -1.52671712     -0.31334027
    C     -3.21400510      0.20947550     -0.81065797
    N     -3.35034505      1.34416589     -0.90329005
    C      2.07373663     -2.15870966     -2.14236160
    H      2.26683205     -1.17405907     -1.77077373
    H      2.64918407     -2.32451130     -3.02907979
    H      2.34626548     -2.87978319     -1.40028338
    C      0.57536891     -2.29943344     -2.46899751
    N     -0.54023396     -2.40420868     -2.71219279
    C     -0.53221459      1.28800764     -2.92098149
    H     -1.23119845      0.50031913     -3.11037146
    H     -0.90492887      2.20236408     -3.33321377
    H     -0.39933337      1.40075639     -1.86526875
    C      0.81898237      0.94342596     -3.57453350
    N      1.82500993      0.68686923     -4.06113268
    C     -2.27297236      1.08490398      2.58420313
    H     -2.95829360      0.26435005      2.54031427
    H     -1.98278458      1.36070839      1.59192188
    H     -2.74420686      1.91798400      3.06254905
    C     -1.02604794      0.66992289      3.38705440
    N     -0.09765602      0.36095059      3.98481366
    C      2.19157404     -1.18250505      1.75912650
    H      2.37664914     -2.19819369      1.47801444
    H      1.91955343     -1.14253253      2.79319907
    H      3.07602892     -0.60163886      1.60027712
    C      1.04375466     -0.61421531      0.90404905
    N      0.18915096     -0.19109776      0.26740502
    C     -2.23377349      4.50057350     -0.88377781
    H     -1.57762149      3.91425451     -1.49254276
    H     -2.15844378      5.52969382     -1.16686065
    H     -3.24091526      4.16595221     -1.02013442
    C     -1.83702834      4.34487485      0.59607057
    N     -1.54163355      4.22895012      1.69788495
