60
Energy:   -251.73425412
    C     -1.60729269     -1.72835435      0.52373009
    H     -2.28990977     -1.92751597     -0.27581275
    H     -2.13775860     -1.29588049      1.34620889
    H     -1.14803489     -2.64269902      0.83670804
    C     -0.52234600     -0.74817502      0.04026431
    N      0.28544613     -0.01838696     -0.31969794
    C     -0.41766288      0.18343540     -4.66272163
    H     -0.73914888      0.01422387     -5.66915811
    H      0.63387378     -0.00006169     -4.58856927
    H     -0.62306048      1.19705470     -4.38833718
    C     -1.17277241     -0.76778362     -3.71583623
    N     -1.73498578     -1.47600942     -3.01083700
    C     -0.79520765      3.19135466      0.27865275
    H     -1.46683227      3.94801717      0.62690897
    H      0.21333589      3.49668055      0.46443517
    H     -0.99138237      2.27509341      0.79525695
    C     -0.99777445      2.98161612     -1.23349024
    N     -1.14859465      2.82545624     -2.35934944
    C      1.30696378      1.49750697      2.88214220
    H      2.19684184      1.41170180      3.47006625
    H      0.83399682      2.43544587      3.08578890
    H      1.55896625      1.44317393      1.84366169
    C      0.34422655      0.34926834      3.23750832
    N     -0.37257507     -0.50564752      3.50209454
    C     -4.16832486      0.89055053     -2.37186931
    H     -4.22200095     -0.13066453     -2.68673254
    H     -3.40223921      1.39411019     -2.92362971
    H     -5.10890961      1.36857929     -2.54988034
    C     -3.83992258      0.94758337     -0.86837366
    N     -3.59541215      0.99004692      0.25104720
    C      1.58594080     -3.19350001      3.86112263
    H      2.06232810     -4.06682135      4.25515965
    H      0.58862606     -3.12813767      4.24320922
    H      2.13732406     -2.32413219      4.15279916
    C      1.54210713     -3.28188296      2.32428592
    N      1.50947096     -3.34768808      1.18004114
    C      1.04067128     -3.47405246     -2.12670598
    H      1.67530078     -4.08019258     -1.51454609
    H      0.64322976     -4.06618120     -2.92440447
    H      0.23735513     -3.08773641     -1.53480890
    C      1.85547411     -2.30544527     -2.71155947
    N      2.46213185     -1.43536410     -3.14700948
    C      3.85405053     -0.76966528      0.04379694
    H      4.45340622      0.04156285     -0.31338908
    H      2.85149727     -0.65625834     -0.31246830
    H      4.25678171     -1.69464162     -0.31274964
    C      3.85472176     -0.76917412      1.58379672
    N      3.85522153     -0.76880843      2.73039655
    C      2.21210080      1.89128329     -2.55446754
    H      1.86381400      2.71972143     -3.13523146
    H      1.43360145      1.16201780     -2.47074359
    H      3.06215004      1.45216000     -3.03351464
    C      2.61039581      2.38055894     -1.14962932
    N      2.90694454      2.74484690     -0.10366341
    C     -3.56695092      1.00031310      3.59707891
    H     -3.84713421      0.83885742      4.61704438
    H     -3.08207724      0.12522320      3.21758678
    H     -4.44129874      1.20436798      3.01503375
    C     -2.60314307      2.19847953      3.51298587
    N     -1.88554432      3.09056890      3.45037477
