60
Energy:   -251.72652541
    C      1.62934364     -3.32328021     -1.20562544
    H      2.62682322     -3.68471683     -1.06670733
    H      1.65055990     -2.26270963     -1.34576462
    H      1.19824506     -3.78837161     -2.06745088
    C      0.78364135     -3.66012716      0.03651858
    N      0.15397756     -3.91092502      0.96135126
    C     -5.60396169      1.03671538      0.35620655
    H     -4.95803168      1.74543502      0.83096024
    H     -6.62050963      1.25597397      0.60810941
    H     -5.47889774      1.09502835     -0.70485787
    C     -5.25054691     -0.38280920      0.83750474
    N     -4.98741355     -1.43970978      1.19585313
    C     -1.12902307      0.51391538     -4.90263670
    H     -1.52336672      0.11277055     -5.81284332
    H     -0.40599775      1.26933178     -5.12952771
    H     -1.92353970      0.94184380     -4.32772828
    C     -0.45856778     -0.61186988     -4.09350306
    N      0.04061666     -1.45006817     -3.49106628
    C      4.42197549      1.64497637      1.97237897
    H      5.05439924      2.41167499      2.36875457
    H      5.01980810      0.91483796      1.46800493
    H      3.88559256      1.17673183      2.77109011
    C      3.42331469      2.26628022      0.97826724
    N      2.67976633      2.72886917      0.23810587
    C      3.27553245      0.18902260     -2.17013486
    H      2.89975043      0.10868776     -1.17151863
    H      4.28450411      0.54426111     -2.14404145
    H      3.24775494     -0.77186600     -2.64005037
    C      2.40418997      1.17632987     -2.96862509
    N      1.75543588      1.91142501     -3.56313735
    C     -0.56047244      2.00126028     -1.02703347
    H      0.19487239      2.75897243     -1.04208828
    H     -1.39761604      2.34348329     -0.45521786
    H     -0.87441983      1.79067190     -2.02802731
    C      0.00910720      0.72126344     -0.38766884
    N      0.43318513     -0.23175238      0.08836719
    C     -2.38560658     -2.27452224     -0.98667559
    H     -1.89466417     -2.85283818     -1.74127907
    H     -3.22870667     -2.81741813     -0.61338565
    H     -1.70322631     -2.08051260     -0.18566591
    C     -2.86088112     -0.94004184     -1.59072540
    N     -3.21474462      0.05353948     -2.04046793
    C      2.16271747     -1.76077109      2.78215000
    H      2.57536131     -1.32466221      3.66783295
    H      1.93047729     -2.78899873      2.96575696
    H      1.27062790     -1.23691002      2.50893785
    C      3.18701497     -1.66253089      1.63639109
    N      3.94965102     -1.58938659      0.78332150
    C     -1.74718257     -1.22087198      2.76846218
    H     -2.61869692     -1.83910672      2.82457578
    H     -1.29137339     -1.15843931      3.73450526
    H     -1.05310517     -1.64509576      2.07334361
    C     -2.14783123      0.18963517      2.29777093
    N     -2.44613237      1.23982185      1.94731989
    C      0.05493625      3.52418237      2.48521436
    H      0.40173288      4.39360290      3.00361597
    H     -1.01090272      3.46610214      2.55946444
    H      0.33784031      3.58655493      1.45517841
    C      0.68265045      2.26668676      3.11472182
    N      1.15001221      1.33042411      3.58341875
