60
Energy:   -251.72256323
    C     -0.19218779      0.61261419     -3.37191620
    H     -0.85522998      0.35596189     -4.17154413
    H      0.36544656      1.48635414     -3.63747512
    H     -0.76012641      0.80747859     -2.48626803
    C      0.77692951     -0.55599185     -3.11351425
    N      1.49848139     -1.42607217     -2.92112224
    C     -1.56933261     -3.03777835      2.58598486
    H     -0.62933182     -2.73772613      2.17214026
    H     -1.95456860     -3.86776860      2.03136020
    H     -1.43401592     -3.32380748      3.60812761
    C     -2.56253587     -1.86339352      2.50873499
    N     -3.30202085     -0.98901063      2.45121896
    C      3.04434382      2.05265386      3.39374655
    H      3.86252948      2.67836804      3.68349502
    H      3.01196377      1.19142533      4.02788852
    H      2.12831952      2.59794233      3.48571969
    C      3.23176173      1.60680990      1.93165979
    N      3.37130289      1.27485880      0.84306974
    C      4.62927764      0.14970732     -2.16653555
    H      4.06415480     -0.75599610     -2.09416374
    H      4.99839813      0.41809152     -1.19874473
    H      5.45243730      0.00408578     -2.83444396
    C      3.72663833      1.27655873     -2.70230432
    N      3.05458234      2.11555083     -3.10120851
    C     -3.62506163     -1.02344339     -1.03561182
    H     -2.79707086     -0.71840874     -0.43039671
    H     -4.08984728     -1.88195197     -0.59762049
    H     -4.33533241     -0.22551443     -1.09663552
    C     -3.12554564     -1.37527651     -2.44922323
    N     -2.75363328     -1.63723226     -3.50172118
    C     -0.36467633     -4.20215493     -3.16840835
    H     -0.71935232     -5.18262958     -3.40877180
    H      0.70258614     -4.18097446     -3.24190187
    H     -0.78341256     -3.49378114     -3.85234229
    C     -0.78760179     -3.84101652     -1.73233276
    N     -1.10248901     -3.57213256     -0.66310920
    C     -3.17986874      2.34987254      0.90153179
    H     -4.22725858      2.50802899      1.05273111
    H     -2.62544656      3.07595956      1.45858903
    H     -2.91583561      1.36767067      1.23389469
    C     -2.85037356      2.49085963     -0.59618499
    N     -2.60504942      2.59583094     -1.71130322
    C     -0.96850304      1.17134513      3.84646128
    H     -1.85207383      0.81850414      4.33605917
    H     -1.20206745      1.43635770      2.83645381
    H     -0.59335527      2.03010449      4.36288708
    C      0.09940607      0.06177889      3.85219498
    N      0.89451295     -0.76434361      3.85646397
    C      1.64077305     -1.57090631      0.45256406
    H      1.31875254     -2.53360434      0.11431050
    H      1.99843832     -1.64743106      1.45810800
    H      2.42739871     -1.21545324     -0.17971141
    C      0.45731621     -0.58678730      0.40216868
    N     -0.42382120      0.14593403      0.36464704
    C      0.87067931      3.17902884     -0.80149049
    H      0.04722002      3.44586935     -1.43046673
    H      1.11695854      2.14900877     -0.95414788
    H      1.71659625      3.78773701     -1.04397347
    C      0.48389842      3.40135258      0.67247447
    N      0.19592247      3.56688270      1.76990838
