60
Energy:   -251.71788341
    C      2.30631917      3.53750987     -2.78998212
    H      1.66524447      2.99547739     -3.45340069
    H      3.14817041      3.91186240     -3.33408299
    H      1.76622282      4.35569798     -2.36130598
    C      2.79468691      2.60126271     -1.66902797
    N      3.15829889      1.90418414     -0.83442665
    C     -1.94146073     -0.44934892      3.35640493
    H     -2.61487712     -0.38780761      4.18563542
    H     -2.48236487     -0.29801637      2.44567980
    H     -1.18736887      0.30362736      3.45269244
    C     -1.27907431     -1.83945357      3.33511421
    N     -0.78589751     -2.87444966      3.31926231
    C     -4.68965552     -0.16731743      0.17834550
    H     -5.75415370     -0.21466811      0.27582225
    H     -4.28770733      0.45142035      0.95326505
    H     -4.27986628     -1.15237189      0.25982921
    C     -4.32586834      0.42805538     -1.19453108
    N     -4.05501225      0.87133750     -2.21670009
    C     -1.61777263      3.32459781     -1.37999585
    H     -1.77095636      4.37817731     -1.27320092
    H     -2.31151385      2.93396740     -2.09485954
    H     -0.61848506      3.14171718     -1.71596927
    C     -1.83706127      2.63365685     -0.02127841
    N     -2.00033163      2.11921991      0.99034849
    C     -1.76961897     -1.02350388     -3.76357133
    H     -2.14270113     -1.50234129     -2.88242172
    H     -1.31653936     -1.75336855     -4.40147063
    H     -2.57736078     -0.54965589     -4.28118156
    C     -0.72220927      0.03413855     -3.36869742
    N      0.05763486      0.82160141     -3.07469584
    C      2.73504569     -2.34465619      3.83300123
    H      1.99183040     -3.10225188      3.69669278
    H      3.19082345     -2.46095536      4.79406326
    H      3.48089422     -2.43553735      3.07119439
    C      2.07527533     -0.95609745      3.74240484
    N      1.58404630      0.07774764      3.67495171
    C     -0.17558789     -4.58421160      0.22562645
    H     -0.89260903     -4.31772316      0.97380074
    H     -0.01135532     -5.64126395      0.24943951
    H     -0.54442609     -4.30219943     -0.73838943
    C      1.15086805     -3.85227593      0.50200445
    N      2.13847479     -3.30731655      0.70778044
    C      0.58559950     -0.04759574      0.35688776
    H      1.40904884     -0.69916510      0.56252999
    H      0.39473467      0.56675595      1.21189753
    H      0.82245729      0.57262307     -0.48223447
    C     -0.66574973     -0.88668307      0.03804991
    N     -1.59743611     -1.51142172     -0.19933936
    C      1.55669595      3.13270883      2.25328226
    H      2.00593517      3.69420833      3.04562222
    H      2.24539164      2.39060136      1.90705426
    H      0.66916405      2.65546682      2.61304090
    C      1.19630214      4.07952274      1.09342894
    N      0.92797257      4.78446874      0.22986542
    C      2.93367143     -1.35493826     -2.21215102
    H      3.80184823     -1.64631835     -2.76556486
    H      3.13863340     -1.42469679     -1.16428489
    H      2.67546917     -0.34625306     -2.45869684
    C      1.76076997     -2.28692295     -2.56895168
    N      0.88749152     -2.98082791     -2.83460599
