60
Energy:   -251.71125295
    C      2.28001864      1.72457514     -3.36903199
    H      2.57753693      0.78557651     -3.78696095
    H      2.83884653      2.51272151     -3.82885347
    H      1.23578462      1.87830420     -3.54465024
    C      2.55043719      1.72043470     -1.85296581
    N      2.75177609      1.71735196     -0.72418562
    C     -0.11109926     -4.34828110      2.22026821
    H     -0.33652449     -4.76199850      1.25958014
    H     -0.15378019     -5.12023516      2.95997379
    H      0.87087833     -3.92359163      2.20420700
    C     -1.13854229     -3.25303393      2.56143453
    N     -1.90352033     -2.43757263      2.81544837
    C      4.02682022      1.35291454      2.41800608
    H      4.37587473      1.73391780      1.48104416
    H      3.92867402      0.28921895      2.35621517
    H      4.72707163      1.60237544      3.18762697
    C      2.65785881      1.97644504      2.74778537
    N      1.63860482      2.44069184      2.99332104
    C      2.46842523     -1.78925820      0.05110562
    H      1.52973582     -2.19809400      0.36193626
    H      2.55810181     -0.78639206      0.41320602
    H      3.26504914     -2.38393868      0.44688910
    C      2.54382622     -1.78832251     -1.48704710
    N      2.59996569     -1.78762585     -2.63227173
    C     -3.76040661     -1.24716580      0.04639143
    H     -3.68253403     -0.26735455      0.46924597
    H     -2.90738881     -1.82717262      0.33073594
    H     -4.64985072     -1.72108854      0.40581528
    C     -3.82005839     -1.14049064     -1.48875093
    N     -3.86447185     -1.06106614     -2.63173420
    C     -0.80183996     -2.56200065     -3.52310649
    H     -1.26651863     -1.61013075     -3.67449214
    H     -1.36019724     -3.31706994     -4.03594818
    H      0.19729579     -2.53593726     -3.90513730
    C     -0.76744149     -2.88275876     -2.01727416
    N     -0.74183026     -3.12157776     -0.89611356
    C     -3.09403710      2.31398445     -3.09888062
    H     -4.08767187      2.27596876     -3.49403241
    H     -2.54789294      1.45305647     -3.42357841
    H     -2.60493648      3.19925446     -3.44813223
    C     -3.15392452      2.33366435     -1.56017136
    N     -3.19851343      2.34831693     -0.41453237
    C     -0.15505143     -0.04233186      4.77402261
    H      0.12102995     -0.08229490      5.80701932
    H     -1.10916567     -0.50818338      4.64155578
    H     -0.20980612      0.97868750      4.45871246
    C      0.89961675     -0.78384295      3.93174218
    N      1.68486515     -1.33593166      3.30462611
    C     -0.46849821      0.32005336      0.83730821
    H     -0.57080388     -0.69249250      1.16773915
    H     -1.28746836      0.90057485      1.20768879
    H      0.45093107      0.72442350      1.20613567
    C     -0.46584055      0.35985486     -0.70217507
    N     -0.46386180      0.38948888     -1.84839035
    C      0.00971039      3.96601849      0.24479939
    H      0.16857134      4.94205772      0.65346894
    H      0.82031681      3.32599961      0.52442798
    H     -0.90761959      3.56584170      0.62330083
    C     -0.06532863      4.05835597     -1.29059728
    N     -0.12119858      4.12710542     -2.43376990
