60
Energy:   -251.71122892
    C     -3.64613693      2.98713807      1.27634994
    H     -3.53763794      2.16426855      1.95163796
    H     -4.61297094      3.42761270      1.40328766
    H     -2.89168293      3.71791335      1.48047182
    C     -3.49662566      2.48572983     -0.17204095
    N     -3.38530772      2.11240860     -1.25043380
    C     -4.44260251     -1.27049786     -1.21143505
    H     -5.50802772     -1.36525622     -1.23954478
    H     -3.99432240     -2.19208515     -1.51904017
    H     -4.13665346     -0.48687049     -1.87266301
    C     -3.99471203     -0.93555692      0.22341988
    N     -3.66123722     -0.68617817      1.29173460
    C      1.21867107     -3.34380999     -1.76730770
    H      0.77797656     -2.67790168     -2.47952582
    H      0.67513998     -3.29238941     -0.84707460
    H      1.18516977     -4.34402519     -2.14591874
    C      2.68343963     -2.93666445     -1.52177649
    N      3.77402640     -2.63352609     -1.33896734
    C      3.91669497      0.49990854     -2.99017881
    H      4.33208043      1.12949926     -3.74910609
    H      4.53349990     -0.36583034     -2.86792103
    H      3.87008163      1.03795947     -2.06647567
    C      2.49819825      0.06539344     -3.40329342
    N      1.44206296     -0.25812280     -3.71087602
    C     -0.85412821      0.25561151      2.91598214
    H     -1.48761556      0.23889554      3.77813904
    H     -0.82858613     -0.71814817      2.47321947
    H     -1.23563756      0.96004241      2.20666781
    C      0.56994934      0.66730286      3.33325108
    N      1.63023980      0.97382578      3.64392678
    C     -0.26219494      2.84299627     -2.74700870
    H     -0.71335281      3.56163313     -3.39886591
    H     -0.79166928      2.82275285     -1.81741404
    H     -0.30188913      1.87500725     -3.20123410
    C      1.20631494      3.23101307     -2.49299751
    N      2.29968730      3.51990922     -2.30387464
    C      2.38405608      3.52670672      1.22003384
    H      2.68589306      3.13249070      2.16786735
    H      2.61876421      4.56973726      1.17646249
    H      2.90203857      3.01159898      0.43820442
    C      0.86632195      3.33426854      1.04382190
    N     -0.26370010      3.19098957      0.91262411
    C      3.61938942     -1.54747348      2.00936463
    H      3.90364977     -1.11671453      1.07205841
    H      4.29991421     -2.33371391      2.26157703
    H      3.64552668     -0.79544148      2.77006419
    C      2.19319939     -2.11821080      1.90054871
    N      1.13133608     -2.54315067      1.81953031
    C     -1.99965084     -3.77687394      2.37311851
    H     -2.66632615     -4.54720587      2.70027740
    H     -2.32432695     -2.83485115      2.76308975
    H     -1.01139329     -3.98717068      2.72528521
    C     -1.99519799     -3.72131024      0.83412765
    N     -1.99188264     -3.67994053     -0.31172099
    C     -0.63136713     -0.28058393     -0.73850560
    H     -1.30192170      0.50649896     -0.46326520
    H     -0.88299509     -1.16893162     -0.19774609
    H     -0.71265860     -0.46738057     -1.78893303
    C      0.81288785      0.13400996     -0.40110458
    N      1.88820134      0.44269395     -0.14989418
