60
Energy:   -253.34383011
    C     -3.29335455      2.36585143      2.52071577
    H     -3.53099366      3.02853543      1.71493804
    H     -2.37783143      2.67609436      2.97948131
    H     -4.08069029      2.38822699      3.24494009
    C     -3.13582560      0.93335732      1.97781130
    N     -3.01853814     -0.13319966      1.57359426
    C     -2.33470462     -3.56775322      0.84895749
    H     -1.79652800     -4.09008319      0.08578155
    H     -2.77973238     -2.68803173      0.43309755
    H     -3.10048328     -4.20248044      1.24342357
    C     -1.36661878     -3.16859641      1.97815351
    N     -0.64583486     -2.87140602      2.81889127
    C      2.47683979      1.48810208     -3.85149628
    H      2.63852673      2.54581116     -3.84849443
    H      2.69832434      1.09618769     -4.82219026
    H      3.11529014      1.02763634     -3.12675388
    C      1.00646543      1.19258135     -3.50182967
    N     -0.08829511      0.97255273     -3.24148699
    C     -0.07443555     -0.44119398     -0.02217955
    H     -0.59205910      0.34832119     -0.52579829
    H     -0.08080348     -0.25647189      1.03173520
    H     -0.56119542     -1.37244539     -0.22400801
    C      1.38029343     -0.50306157     -0.52371320
    N      2.46340528     -0.54912481     -0.89712780
    C      2.72762069     -3.30910556      1.61229141
    H      3.46336183     -4.06867594      1.77550287
    H      2.17341270     -3.14982260      2.51361351
    H      3.21200292     -2.39902634      1.32588475
    C      1.76919864     -3.75497493      0.49236834
    N      1.05560985     -4.08694494     -0.34146528
    C      3.67171546      2.04341064      1.16108265
    H      4.57626579      2.46729056      1.54450758
    H      3.81979782      1.00137438      0.96838824
    H      2.88812905      2.16546003      1.87941084
    C      3.28448922      2.75743505     -0.14728464
    N      2.99618168      3.28905868     -1.12142356
    C     -0.11574442      0.26875620      4.08917337
    H     -0.15967322     -0.02722810      5.11648235
    H     -0.86557936     -0.25566182      3.53452720
    H     -0.28777202      1.32214524      4.01382653
    C      1.27427565     -0.06657108      3.51733438
    N      2.30920877     -0.31623749      3.09157425
    C      0.70723749     -2.65195549     -3.46537101
    H      0.81423104     -1.79986680     -4.10364792
    H      0.86879500     -3.54486337     -4.03239287
    H      1.42528822     -2.59718786     -2.67397810
    C     -0.71273410     -2.67203089     -2.86965493
    N     -1.76996750     -2.68697793     -2.42611723
    C     -0.34299412      3.90110106     -0.84303427
    H     -0.46261658      3.18087990     -1.62525683
    H      0.51128686      4.51186508     -1.04814497
    H     -1.21656689      4.51653953     -0.78821452
    C     -0.14306112      3.17286489      0.49909049
    N      0.00579809      2.63065996      1.49836338
    C     -3.40387892      0.17199528     -2.04068039
    H     -4.35621165     -0.01681149     -2.49047430
    H     -3.22692071     -0.54463615     -1.26606805
    H     -2.63692960      0.09207446     -2.78250281
    C     -3.39175291      1.59017822     -1.44050531
    N     -3.38272454      2.64607987     -0.99364768
