60
Energy:   -251.70738348
    C     -1.34535810     -0.01123974     -3.81605002
    H     -1.92128476      0.38923108     -4.62403008
    H     -1.87648301      0.12559782     -2.89731126
    H     -1.17910611     -1.05548412     -3.97979691
    C      0.00869245      0.71837043     -3.73978649
    N      1.01684462      1.26159837     -3.68300482
    C     -0.46186856     -0.33260442      2.22471476
    H     -1.04188670     -1.18615856      2.50742393
    H     -0.90528980      0.55122733      2.63351561
    H      0.53450323     -0.43819209      2.60020591
    C     -0.42291139     -0.22421405      0.68902799
    N     -0.39390600     -0.14351249     -0.45436062
    C      3.91741327     -0.54823630      2.69153976
    H      2.84957914     -0.60994710      2.66286528
    H      4.21004743      0.30458611      3.26769796
    H      4.31399912     -1.43495859      3.14025163
    C      4.46233555     -0.41062815      1.25776024
    N      4.86805496     -0.30817263      0.19024622
    C      2.50302694     -1.49170307     -1.88102401
    H      2.27580236     -1.05422618     -0.93134873
    H      2.64238201     -0.71739449     -2.60623121
    H      3.39890616     -2.07133885     -1.80151378
    C      1.34009492     -2.40152768     -2.31852633
    N      0.47423917     -3.07893347     -2.64426670
    C     -4.30721339      0.14770710      1.53505282
    H     -5.30250588     -0.18064216      1.75064457
    H     -4.14631577      1.11029947      1.97371782
    H     -3.60547121     -0.55086094      1.94058911
    C     -4.11629235      0.24028711      0.00974036
    N     -3.97414295      0.30921714     -1.12592410
    C      0.32303526     -4.92109733      0.50094871
    H      0.01198019     -4.76379277     -0.51068373
    H     -0.53803776     -5.04996981      1.12291674
    H      0.93543185     -5.79693181      0.55370732
    C      1.12863163     -3.70146915      0.98584209
    N      1.72843475     -2.79340053      1.34686725
    C     -1.67029601      3.05549347     -1.28688374
    H     -1.48535987      4.08328233     -1.52001215
    H     -2.54665134      2.72457417     -1.80398416
    H     -0.83199033      2.46430049     -1.59124133
    C     -1.88170314      2.90339790      0.23093508
    N     -2.03910535      2.79015583      1.36102018
    C      0.48695640      4.40132470      2.89830717
    H     -0.47295589      4.19089166      3.32161146
    H      0.36129380      4.88844382      1.95394338
    H      1.03579463      5.03973282      3.55869400
    C      1.25945732      3.08427079      2.69777961
    N      1.83461937      2.10366428      2.54847772
    C     -2.67132974     -2.83341830     -1.54623661
    H     -3.66919193     -2.59853151     -1.85282985
    H     -2.37668971     -3.76782991     -1.97630788
    H     -2.00608527     -2.06319907     -1.87655649
    C     -2.61667014     -2.93516560     -0.01057394
    N     -2.57597359     -3.01092109      1.13279671
    C      2.68177313      2.15286882     -0.85945438
    H      2.07116468      1.32395627     -0.56797284
    H      3.55651265      2.18529606     -0.24408591
    H      2.97020598      2.04062763     -1.88371387
    C      1.88649274      3.46075800     -0.69047219
    N      1.29437033      4.43454095     -0.56465728
