60
Energy:   -251.69952255
    C      3.55407801      1.22246679     -1.80385812
    H      3.06899812      2.15757813     -1.99138002
    H      2.98646408      0.43104381     -2.24698697
    H      4.53592595      1.23844908     -2.22885023
    C      3.65604331      0.99266002     -0.28451881
    N      3.73196111      0.82155843      0.84669836
    C     -1.98642460     -2.79050150      1.87572876
    H     -2.31300164     -2.07448800      1.15076512
    H     -1.83372960     -2.30229846      2.81553785
    H     -2.73058015     -3.55142693      1.98583824
    C     -0.66513439     -3.42851045      1.40803576
    N      0.31862623     -3.90353712      1.05981705
    C      2.20283201      1.05436728      3.78852336
    H      1.94247493      1.74869301      3.01714398
    H      3.20999045      0.72284220      3.64491947
    H      2.11711242      1.53202707      4.74214403
    C      1.25136673     -0.15526963      3.73291431
    N      0.54295758     -1.05589929      3.69151085
    C      3.41151008     -2.63374790      1.50266794
    H      3.76829647     -3.62817621      1.67212585
    H      2.48535601     -2.49410791      2.02000574
    H      4.13173071     -1.92993429      1.86436911
    C      3.19439422     -2.41645679     -0.00638649
    N      3.03274159     -2.25467368     -1.12994611
    C     -3.56084639     -0.01073525     -2.42600970
    H     -4.10667502      0.80744249     -2.84738420
    H     -4.10429914     -0.91938226     -2.58066678
    H     -2.60389765     -0.08252010     -2.89929094
    C     -3.37038597      0.22278979     -0.91578095
    N     -3.22857953      0.39665980      0.20865301
    C      0.23147710     -3.61175307     -2.51638733
    H      0.72296435     -2.73091663     -2.87341345
    H      0.14301522     -4.31909203     -3.31435047
    H      0.80324591     -4.04149011     -1.72058233
    C     -1.17150030     -3.24295897     -1.99942958
    N     -2.21608076     -2.96837500     -1.61453104
    C      0.21339813      2.54778169     -4.31957281
    H      0.94434054      2.71859282     -3.55704614
    H      0.38481775      3.21928665     -5.13480008
    H      0.28935020      1.53853837     -4.66678785
    C     -1.19464538      2.78803255     -3.74399222
    N     -2.24299777      2.96691024     -3.31544630
    C     -2.75156902      0.56931132      3.70334565
    H     -2.26567185     -0.25424975      4.18350322
    H     -3.32683880      0.21064619      2.87550321
    H     -3.39807952      1.05842414      4.40169507
    C     -1.69244556      1.56687821      3.19864993
    N     -0.90388000      2.30961211      2.82288102
    C      0.29467919     -0.04533191      0.37084875
    H      0.86592948     -0.89169093      0.69061384
    H     -0.68227728     -0.08979222      0.80498978
    H      0.78341964      0.85364905      0.68368273
    C      0.17517171     -0.05707859     -1.16446228
    N      0.08619295     -0.06582453     -2.30757113
    C     -1.61378865      3.80918795     -0.03487616
    H     -2.11545712      2.88788394      0.17590299
    H     -2.13665467      4.33103721     -0.80894565
    H     -1.58969795      4.41241519      0.84854651
    C     -0.17389490      3.51590735     -0.49562825
    N      0.89817144      3.29754662     -0.83867913
