60
Energy:   -251.69366553
    C     -3.90662288      1.73481630      1.08096168
    H     -4.92794218      1.98594398      0.88413193
    H     -3.30331382      2.61593885      1.01357964
    H     -3.82429104      1.32050157      2.06405062
    C     -3.42349603      0.70152405      0.04631413
    N     -3.06378613     -0.06780901     -0.72402800
    C     -2.46508051     -3.03056411      1.33110115
    H     -2.31876402     -2.60534736      0.36018283
    H     -3.30299933     -3.69554078      1.30666406
    H     -1.58830916     -3.57204073      1.61915352
    C     -2.73158595     -1.90616547      2.34909062
    N     -2.93001137     -1.06899957      3.10703005
    C      4.16229256     -0.60052849      2.17724155
    H      4.64844883     -0.79738392      3.10987234
    H      4.89887090     -0.43149923      1.41975852
    H      3.55782563     -1.44067018      1.90579951
    C      3.27244766      0.64869859      2.31583356
    N      2.60991768      1.57880494      2.41902161
    C      2.97531377      0.73778210     -3.33483863
    H      1.94017374      0.64361253     -3.58884135
    H      3.57435816      0.33263174     -4.12344379
    H      3.21654811      1.77129672     -3.19863066
    C      3.25576890     -0.03106031     -2.03029799
    N      3.46458048     -0.60349843     -1.05900819
    C     -2.35274585     -2.43424165     -3.01694427
    H     -2.48091517     -2.89684243     -2.06066328
    H     -2.46841146     -3.16841943     -3.78668679
    H     -3.08727301     -1.66647753     -3.14306798
    C     -0.94463329     -1.81678046     -3.10389652
    N      0.10377052     -1.35705254     -3.16863642
    C      2.05043325     -3.67494732     -1.02417735
    H      2.18395319     -2.98708067     -1.83282566
    H      2.69221106     -4.51950558     -1.16468242
    H      2.29376714     -3.19174528     -0.10102866
    C      0.58436253     -4.14487907     -0.98674998
    N     -0.50719375     -4.49476462     -0.95888360
    C     -1.12427666      1.93705512     -3.06989841
    H     -1.77340434      1.08868378     -3.13153851
    H     -0.14563971      1.61695259     -2.77886030
    H     -1.07322159      2.41721053     -4.02475089
    C     -1.67200579      2.92772094     -2.02578441
    N     -2.07981503      3.66531667     -1.24839408
    C      0.22340435      0.26989263      0.09930553
    H      1.13988888      0.77222922     -0.13007240
    H     -0.44448805      0.95040300      0.58482017
    H     -0.22462839     -0.08538506     -0.80509677
    C      0.51045025     -0.92119060      1.03232502
    N      0.72416896     -1.80800621      1.72700045
    C     -0.08095459      0.43627943      4.47654143
    H      0.29071017      0.91036090      5.36085600
    H      0.72000448     -0.07054129      3.98005737
    H     -0.83951362     -0.26997627      4.74241771
    C     -0.67689945      1.49988160      3.53569068
    N     -1.12060748      2.29178176      2.83518452
    C      0.77814959      4.30378790      0.89627497
    H      1.08157539      5.32896395      0.93925203
    H      1.16351742      3.78179853      1.74710858
    H     -0.29038052      4.24773961      0.89731802
    C      1.32468724      3.66024172     -0.39164774
    N      1.73160936      3.18109234     -1.35056474
