60
Energy:   -251.69172526
    C      0.20336094      0.83607672      3.39194304
    H     -0.60809301      1.39957320      3.80293499
    H      0.49755502      1.26460663      2.45668316
    H      1.03108972      0.85644704      4.06969610
    C     -0.24348300     -0.62102033      3.17103881
    N     -0.57617862     -1.70589531      3.00656556
    C     -1.58652788     -2.70499917     -0.27530850
    H     -1.22445802     -2.57892876     -1.27426388
    H     -1.91751382     -3.71355264     -0.14052235
    H     -0.80038408     -2.49186795      0.41855899
    C     -2.76272701     -1.74163119     -0.03020086
    N     -3.63846072     -1.02435993      0.15229291
    C      2.28185522     -2.78555109      1.35859545
    H      2.13977818     -1.75261947      1.59894225
    H      3.28813951     -3.06949595      1.58589778
    H      1.60448535     -3.38193535      1.93339537
    C      2.01294861     -3.00518497     -0.14175457
    N      1.81273541     -3.16871238     -1.25883336
    C     -4.39473899      0.43476523     -3.03469154
    H     -4.65774508      0.43148058     -1.99752367
    H     -5.23466680      0.11735196     -3.61664445
    H     -4.11127109      1.42407286     -3.32763431
    C     -3.21531844     -0.52753464     -3.26824262
    N     -2.33718623     -1.24401064     -3.44213201
    C      1.00632148      4.00945436     -1.57019922
    H      0.93541089      3.07536025     -2.08724859
    H      1.92569776      4.49164626     -1.82930792
    H      0.18440529      4.63502121     -1.84951802
    C      0.96810997      3.75950667     -0.05109882
    N      0.93965976      3.57340925      1.07994048
    C     -4.15788144     -1.65784471      3.44995286
    H     -4.85898292     -1.65699386      2.64164836
    H     -4.62842670     -2.04425079      4.32982592
    H     -3.31986938     -2.27218902      3.19457872
    C     -3.67769603     -0.21873425      3.71449599
    N     -3.32017617      0.85274890      3.91146036
    C     -2.31781003      1.97393943      0.89637205
    H     -3.36579166      1.98881333      1.11180984
    H     -1.82964623      2.75151580      1.44589020
    H     -1.90893062      1.02648971      1.17931329
    C     -2.10057113      2.19702319     -0.61181921
    N     -1.93882690      2.36311919     -1.73473617
    C      4.57259299     -1.43177288     -2.74045815
    H      4.40745109     -0.41944951     -3.04513785
    H      3.69573309     -2.01173892     -2.93959425
    H      5.39977436     -1.83756779     -3.28451749
    C      4.88177439     -1.47000297     -1.23229856
    N      5.11197400     -1.49846701     -0.10940520
    C      3.65386306      1.35117284      1.19079762
    H      4.59132375      0.91020144      1.45840153
    H      2.85755577      0.69347585      1.47049112
    H      3.54066012      2.28519855      1.70038585
    C      3.61363523      1.58813567     -0.33033037
    N      3.58368378      1.76456527     -1.46287929
    C      0.69286575     -0.02249925     -2.69762211
    H      0.60440683     -1.03823144     -3.02221928
    H      1.63263138      0.37450285     -3.02031232
    H     -0.10237262      0.55686420     -3.11813729
    C      0.61216910      0.03415938     -1.16078189
    N      0.55208678      0.07634430     -0.01653449
