60
Energy:   -253.26894167
    C      2.57165435      2.55691182     -1.72077266
    H      2.42392571      1.59101270     -2.15679483
    H      3.61112397      2.69773730     -1.50965614
    H      2.24112969      3.31103893     -2.40410629
    C      1.76392096      2.65902195     -0.41358473
    N      1.16252673      2.73504758      0.55967610
    C     -0.18460822     -3.42782558      2.65304357
    H      0.02362427     -4.08456769      3.47171885
    H      0.73511541     -3.10799591      2.20951622
    H     -0.77242044     -3.94353798      1.92268980
    C     -0.96201307     -2.20068102      3.16427534
    N     -1.54082632     -1.28701611      3.54491063
    C      3.53552100      1.57640090      2.80174259
    H      4.23992223      1.63660760      1.99856501
    H      4.05812089      1.57916413      3.73543462
    H      2.87472448      2.41695778      2.76037616
    C      2.72060817      0.27599540      2.67343587
    N      2.11386853     -0.69221560      2.57790568
    C      3.24819941     -2.21997353     -0.53063291
    H      2.72082771     -2.28727021     -1.45920732
    H      2.56300629     -2.35808390      0.27951214
    H      4.00240812     -2.97803398     -0.49304760
    C      3.90789073     -0.83329807     -0.41427773
    N      4.39906091      0.19914484     -0.32764601
    C     -4.32409360     -0.70993891      1.31605926
    H     -3.94468597     -0.41840943      2.27311757
    H     -5.37158744     -0.91362101      1.39460448
    H     -4.16635801      0.08165961      0.61364174
    C     -3.58956891     -1.97568581      0.83651963
    N     -3.04268188     -2.91809191      0.47948058
    C     -1.45423091     -3.34965821     -2.53792255
    H     -1.27938223     -3.92262778     -3.42450814
    H     -1.40809130     -2.30668740     -2.77240521
    H     -2.42187484     -3.58473374     -2.14638224
    C     -0.37960304     -3.68777623     -1.48794582
    N      0.42050625     -3.93952046     -0.70619041
    C     -0.50396779      0.51087280     -4.76846649
    H     -1.41331854      0.74344175     -4.25476125
    H     -0.71505026     -0.14214995     -5.58938341
    H     -0.06073716      1.41305833     -5.13521840
    C      0.47069944     -0.18246204     -3.79846103
    N      1.19638350     -0.69868134     -3.07624788
    C     -0.49112173      1.98030200      3.55896719
    H     -0.80122777      2.18436237      4.56250782
    H      0.24084140      2.70057358      3.25840453
    H     -0.06738006      0.99904756      3.50914944
    C     -1.70815402      2.06222798      2.61890307
    N     -2.61428987      2.12322559      1.91898260
    C     -0.18361114     -0.38969830      0.13762873
    H      0.76324908     -0.20041726     -0.32337951
    H     -0.25007416     -1.42378259      0.40437101
    H     -0.27883184      0.21232539      1.01706013
    C     -1.31368035     -0.04027661     -0.84849908
    N     -2.15506825      0.21988372     -1.58271606
    C     -2.09027636      3.69114473     -0.98392221
    H     -2.66593052      4.58299145     -1.11857692
    H     -1.51194837      3.77189401     -0.08730892
    H     -2.74761868      2.85012775     -0.90982345
    C     -1.14804145      3.50176895     -2.18722191
    N     -0.44650473      3.36077007     -3.08313324
