60
Energy:   -251.69131589
    C      1.09775273     -1.82698894     -1.86006017
    H      0.66305181     -1.73571285     -2.83350969
    H      1.08815317     -2.85401819     -1.56003038
    H      2.10691416     -1.47223535     -1.88540174
    C      0.28477378     -0.99078242     -0.85436446
    N     -0.32052600     -0.36818865     -0.10557829
    C      1.15995652      1.35872657     -4.64884060
    H      2.18537395      1.66357456     -4.67090823
    H      0.79112116      1.27503886     -5.64976813
    H      1.08012261      0.41084755     -4.15889060
    C      0.32986884      2.40466017     -3.88165265
    N     -0.28816917      3.18340528     -3.31044635
    C      5.06804800      0.75622590     -0.16799969
    H      4.66280454      0.87463110      0.81518805
    H      5.83082148      1.48891329     -0.33000249
    H      5.48785262     -0.22317156     -0.26517880
    C      3.94926521      0.94088934     -1.21002871
    N      3.11628057      1.07837967     -1.98586668
    C     -1.74725047     -2.65893288      2.31502922
    H     -1.43898938     -1.63542513      2.26699638
    H     -1.56739338     -3.03981095      3.29863606
    H     -2.79131841     -2.72784959      2.09126208
    C     -0.94709701     -3.48465217      1.29055760
    N     -0.35134639     -4.09943772      0.52779192
    C      0.80095271      2.96767522     -0.11608486
    H      0.33826813      3.85130868      0.27123294
    H      0.04656793      2.29303076     -0.46344283
    H      1.44642448      3.22974652     -0.92823258
    C      1.62362739      2.28969932      0.99529043
    N      2.23614609      1.78491545      1.82275986
    C     -3.25565962      0.67855002      1.71155686
    H     -2.77425215      0.02747771      1.01209144
    H     -4.25932433      0.86625291      1.39167584
    H     -3.26935787      0.21739785      2.67698429
    C     -2.48428299      2.00917237      1.78916004
    N     -1.90995802      2.99988119      1.84693914
    C      0.36410331      2.44994299      4.54393695
    H      1.42491106      2.31498684      4.50687046
    H      0.09279330      2.88756116      5.48190300
    H      0.05867798      3.09579581      3.74738902
    C     -0.33260034      1.08478828      4.39374834
    N     -0.85132788      0.06836854      4.28192609
    C      1.82320863     -1.43559062      2.65042621
    H      0.99774645     -0.85992087      2.28694758
    H      2.36039389     -0.86718078      3.38065997
    H      1.45989085     -2.33746975      3.09709535
    C      2.76101955     -1.78417884      1.47970126
    N      3.45926241     -2.04371862      0.60804332
    C     -2.40683902     -3.62248475     -2.28967498
    H     -3.11822535     -4.04017314     -2.97111909
    H     -1.94007702     -4.40924820     -1.73466543
    H     -1.66296632     -3.08237986     -2.83725074
    C     -3.12538474     -2.66632006     -1.31960224
    N     -3.66037470     -1.95441198     -0.59733900
    C     -2.84014401      1.28957202     -1.99652956
    H     -2.13865972      1.57044929     -1.23894926
    H     -3.69773356      0.84124454     -1.53997537
    H     -3.14077886      2.15835153     -2.54401467
    C     -2.18277853      0.28018029     -2.95600805
    N     -1.69334005     -0.47135773     -3.67038340
