60
Energy:   -251.68954852
    C      2.52472238      3.45142468      1.92072171
    H      1.46416609      3.34333888      2.01258033
    H      2.74950867      4.04388603      1.05853857
    H      2.91123166      3.93260611      2.79477782
    C      3.17132310      2.06174193      1.77142547
    N      3.65274673      1.02705996      1.66026764
    C      0.14652150     -2.69289957     -3.26260133
    H      0.58807693     -2.41553465     -4.19694478
    H     -0.35021850     -3.63467443     -3.36847184
    H      0.91007770     -2.77417922     -2.51743381
    C     -0.87300591     -1.61966208     -2.83795427
    N     -1.63209042     -0.82058798     -2.52178523
    C      4.13558513      0.20508427     -1.61239463
    H      5.11757995      0.07882495     -2.01815927
    H      3.97659557     -0.51134462     -0.83370915
    H      4.03894034      1.19311111     -1.21319313
    C      3.09016719     -0.00409510     -2.72367556
    N      2.31180601     -0.15983864     -3.55107473
    C      1.02266291     -4.64942937      1.11972533
    H      1.15950939     -5.64562585      1.48546540
    H      0.74770301     -4.00670541      1.92978832
    H      1.93512411     -4.30157716      0.68233248
    C     -0.09182101     -4.64134031      0.05696470
    N     -0.92160494     -4.63531764     -0.73430890
    C     -4.21717530      1.30722327     -1.79925830
    H     -4.46721683      0.63793272     -1.00274742
    H     -3.89016891      0.74451554     -2.64856738
    H     -5.07849247      1.88429183     -2.06387823
    C     -3.08829233      2.24983415     -1.34241264
    N     -2.24778764      2.95165080     -1.00227029
    C     -3.17810745     -2.14825724      0.41191589
    H     -4.14929237     -2.09447342      0.85779406
    H     -3.10878376     -3.03268208     -0.18631986
    H     -3.02030508     -1.28771213     -0.20408704
    C     -2.10721701     -2.19129685      1.51778263
    N     -1.30989040     -2.22334180      2.34115069
    C      1.72469094     -1.21519874      3.65820228
    H      2.24194051     -1.33655657      2.72942602
    H      1.00506639     -1.99901805      3.77074957
    H      2.42614796     -1.25644995      4.46514434
    C      1.00638462      0.14695300      3.67156851
    N      0.47157292      1.16113689      3.68152027
    C     -0.03039546      0.53978663      0.30739042
    H      0.57695084      1.38877816      0.54243094
    H     -0.69991520      0.34456779      1.11889028
    H     -0.59406628      0.73917189     -0.57997637
    C      0.87035402     -0.68812522      0.07829906
    N      1.54100295     -1.60236141     -0.09226988
    C     -2.23345923      2.84430950      2.58135084
    H     -2.79233312      3.75648418      2.60365592
    H     -1.39695192      2.95453552      1.92331981
    H     -1.88447106      2.61565697      3.56665504
    C     -3.13532750      1.70190346      2.07821859
    N     -3.80680942      0.85133024      1.70361377
    C      0.12877659      2.46246264     -3.35469499
    H      0.67304728      2.32351873     -4.26538934
    H     -0.55956265      3.27340110     -3.47074237
    H     -0.40997232      1.56797766     -3.12114557
    C      1.11152507      2.78268310     -2.21308898
    N      1.84322598      3.02110180     -1.36311141
