60
Energy:   -251.68854516
    C      1.98499398      1.92097498      1.88427205
    H      2.04261902      2.64275916      2.67205827
    H      2.86231913      1.30856681      1.89675830
    H      1.11974626      1.30747792      2.02522180
    C      1.88467434      2.64653372      0.52961325
    N      1.80998181      3.18674519     -0.47899181
    C     -1.88378032      1.40813183      3.11025482
    H     -0.93159157      1.66277341      3.52666137
    H     -2.03315427      0.35102657      3.18177389
    H     -2.65620136      1.91482506      3.65018704
    C     -1.92752472      1.83382094      1.63090523
    N     -1.96009441      2.15076583      0.52946221
    C      2.73128407     -3.12574716     -1.37021595
    H      2.15970427     -2.89182737     -0.49644352
    H      3.75710896     -2.87075366     -1.20420177
    H      2.65306277     -4.17247341     -1.57792893
    C      2.19008994     -2.32291205     -2.56778211
    N      1.78714631     -1.72516481     -3.45942454
    C     -4.75031459      0.45429523     -0.84849550
    H     -5.49713299      1.21396498     -0.94881664
    H     -5.00238757     -0.37817771     -1.47167053
    H     -3.80011244      0.84690826     -1.14492419
    C     -4.68023838     -0.00599270      0.61943650
    N     -4.62806346     -0.34869799      1.71237860
    C     -0.44674981      0.86867220     -2.17091463
    H     -1.51322421      0.79792332     -2.12064408
    H     -0.10601068      0.46528957     -3.10154796
    H     -0.15358359      1.89517059     -2.09843214
    C      0.17582739      0.07367539     -1.00816887
    N      0.63936442     -0.51823587     -0.14245180
    C     -0.68605328      5.47101680      0.36011326
    H     -1.16628921      6.42374397      0.44125860
    H     -1.33427355      4.78684796     -0.14646603
    H      0.22386945      5.57621122     -0.19294537
    C     -0.37152790      4.93309127      1.76841362
    N     -0.13734946      4.53258126      2.81695725
    C      3.61089461      1.16299237     -2.52197022
    H      2.60258522      0.93251950     -2.79600417
    H      4.27239134      0.85567990     -3.30483688
    H      3.70642780      2.21749506     -2.36770881
    C      3.97254985      0.41930433     -1.22284221
    N      4.24181862     -0.13440521     -0.25558235
    C     -1.05192265     -3.79304984     -2.98099819
    H     -1.67958301     -4.59452514     -3.31051299
    H     -0.37188475     -4.15479099     -2.23830653
    H     -0.49985914     -3.40736871     -3.81248784
    C     -1.92186746     -2.67397825     -2.37893940
    N     -2.56958091     -1.84077858     -1.93067926
    C     -1.89658031     -2.32115366      1.47962676
    H     -1.72047828     -1.34707131      1.07336104
    H     -1.80890798     -2.28428809      2.54539108
    H     -2.88082998     -2.64589558      1.21374266
    C     -0.85963258     -3.30877908      0.91311513
    N     -0.08757786     -4.04411110      0.49132147
    C      2.49540609     -2.11963092      2.34152739
    H      3.35129388     -2.17443744      2.98133401
    H      2.73505999     -1.54092185      1.47402471
    H      2.20883112     -3.10662924      2.04385610
    C      1.33109666     -1.45311801      3.09766500
    N      0.46421536     -0.95686885      3.66064382
