60
Energy:   -251.67201755
    C      2.89096318      0.94306733     -3.43870371
    H      3.86718891      0.82748379     -3.86122465
    H      2.41714488      1.80238037     -3.86529066
    H      2.30598768      0.07210998     -3.64878952
    C      3.00979967      1.12618068     -1.91425384
    N      3.09827884      1.26251689     -0.77923163
    C      0.06405064     -1.23221244      4.68190153
    H      0.73998349     -1.90071121      4.19085738
    H     -0.09543813     -1.56124265      5.68748671
    H      0.48068039     -0.24669875      4.69092960
    C     -1.27888055     -1.21491939      3.92835208
    N     -2.27875386     -1.20204393      3.36730027
    C      3.16497186      2.26752514      2.52740136
    H      3.72295261      2.42407011      1.62792855
    H      3.71531416      2.65292173      3.36016298
    H      2.22472523      2.77329136      2.45643731
    C      2.92306704      0.75960647      2.72555113
    N      2.74295790     -0.36310752      2.87308265
    C      3.06182537     -2.34690208      0.01198817
    H      2.19975021     -2.85211916      0.39471822
    H      3.03745262     -1.32082107      0.31441639
    H      3.94656442     -2.81079972      0.39530901
    C      3.06428486     -2.42889107     -1.52582579
    N      3.06611606     -2.48993561     -2.67079818
    C     -3.37672745     -2.04894344      0.27570738
    H     -3.37547753     -1.04915481      0.65691771
    H     -2.50635454     -2.56461545      0.62417899
    H     -4.25362752     -2.55919471      0.61569120
    C     -3.36913218     -2.01132899     -1.26381445
    N     -3.36347715     -1.98332332     -2.41005843
    C     -0.25689981     -3.52597487     -3.28676278
    H      0.33199295     -2.67871413     -3.57005545
    H     -1.26053004     -3.39486668     -3.63380183
    H      0.15838835     -4.41069096     -3.72232251
    C     -0.25769240     -3.66076519     -1.75267317
    N     -0.25828252     -3.76112271     -0.61047372
    C     -2.67846731      1.37432620     -3.27375639
    H     -3.23679274      0.52420373     -3.60611866
    H     -1.65424145      1.26361639     -3.56289964
    H     -3.08058511      2.26092540     -3.71776341
    C     -2.77026678      1.48116655     -1.74021213
    N     -2.83861566      1.56071405     -0.59841873
    C     -3.06825266      2.10881788      2.69313369
    H     -3.35951815      2.87938743      2.01028146
    H     -3.53440703      2.27762644      3.64134404
    H     -3.37421409      1.15796147      2.30952090
    C     -1.53777577      2.12533812      2.86333232
    N     -0.39826616      2.13763818      2.99005294
    C     -0.08337417     -0.43932368      0.66106407
    H      0.07149649     -1.44911694      0.97923515
    H     -1.04758901     -0.10722178      0.98494237
    H      0.67152499      0.18842281      1.08645882
    C     -0.00501390     -0.36744028     -0.87526026
    N      0.05332889     -0.31391982     -2.01912355
    C      0.26343973      3.34089555     -0.18691253
    H     -0.74059413      3.25917790      0.17383450
    H      0.69679877      4.25262307      0.16784366
    H      0.83844539      2.51107191      0.16757346
    C      0.25720655      3.34062750     -1.72689990
    N      0.25256566      3.34042793     -2.87349049
