60
Energy:   -251.65284057
    C     -2.30457436      2.50992892      0.32155250
    H     -2.07170140      3.49110222      0.67928048
    H     -1.57200493      1.81677522      0.67901449
    H     -3.27185978      2.22118928      0.67635870
    C     -2.30192178      2.51096522     -1.21844487
    N     -2.29994681      2.51173680     -2.36504290
    C      0.61329961     -3.84683929      0.94109263
    H      0.05431569     -4.65410511      1.36625030
    H      0.27794381     -2.92118255      1.36013341
    H      1.65278887     -3.98021968      1.15689543
    C      0.40439243     -3.82526561     -0.58451950
    N      0.24885154     -3.80920302     -1.72040707
    C      0.47648969      3.96261477      3.41488425
    H      0.11215305      4.56891133      2.61203715
    H      1.52870674      3.80863098      3.29644708
    H      0.29072678      4.45511297      4.34646181
    C     -0.24618544      2.60279082      3.40006957
    N     -0.78424992      1.59034007      3.38903938
    C     -2.32439050     -1.21242213      2.36902925
    H     -1.28456614     -0.99204827      2.24614372
    H     -2.44264448     -2.24549656      2.62136299
    H     -2.72743479     -0.60546822      3.15264991
    C     -3.07068176     -0.91630024      1.05489030
    N     -3.62632953     -0.69582402      0.07645413
    C      1.80890323     -0.79401116      3.09206024
    H      1.34152767     -0.80087508      2.12955665
    H      1.06438287     -0.91513771      3.85095212
    H      2.51342853     -1.59708552      3.15218310
    C      2.53913894      0.54602859      3.29857729
    N      3.08283261      1.54374909      3.45233861
    C     -1.15858875     -0.66106283     -2.57126222
    H     -0.90791863     -1.61411570     -2.98810139
    H     -0.83601887      0.11424727     -3.23439268
    H     -2.21830082     -0.59790234     -2.43739595
    C     -0.45843140     -0.49614969     -1.20957822
    N      0.06286758     -0.37336436     -0.19574258
    C      2.97835071     -1.63030041     -2.37656188
    H      3.37860101     -2.48254050     -2.88487942
    H      3.46884369     -0.74501790     -2.72382345
    H      1.92922539     -1.55751992     -2.57388939
    C      3.20630287     -1.78260658     -0.86116073
    N      3.37602362     -1.89600544      0.26712431
    C      2.85425169      1.75495536      0.01327244
    H      3.62941178      2.06222662      0.68380311
    H      3.24789243      1.68587166     -0.97928663
    H      2.47920301      0.79950762      0.31552596
    C      1.71183990      2.78727569      0.04173352
    N      0.86126239      3.55588510      0.06292409
    C      0.49952353      3.79610452     -3.55580891
    H      1.17754359      4.46402262     -4.04476126
    H      0.24513750      4.18772047     -2.59309203
    H     -0.38771055      3.69397343     -4.14511699
    C      1.16676224      2.41815752     -3.38951228
    N      1.66355178      1.39221334     -3.26569687
    C     -3.40563374     -3.75235440     -1.76346660
    H     -4.12816952     -4.45888025     -2.11512474
    H     -2.53300463     -3.79721413     -2.38104666
    H     -3.82106930     -2.76713231     -1.80408467
    C     -3.02373861     -4.08890477     -0.31002587
    N     -2.73940032     -4.33948181      0.77212682
