60
Energy:   -251.64083280
    C      2.91401284      0.69508753     -3.25437713
    H      3.86979447      0.54344384     -3.71087013
    H      2.50800340      1.63028913     -3.57911299
    H      2.25373909     -0.09791009     -3.53738322
    C      3.07305277      0.70867366     -1.72267163
    N      3.19146523      0.71878915     -0.58224727
    C     -0.24293150     -0.62494527      4.73405432
    H     -1.10422089     -1.08265260      4.29407162
    H     -0.41926805     -0.46160555      5.77670702
    H      0.60397107     -1.26739009      4.61190778
    C      0.03156805      0.72336672      4.04245850
    N      0.23594545      1.72724628      3.52753398
    C      3.80131835      1.49169683      2.68009679
    H      4.33946767      1.56065660      1.75784952
    H      4.46146510      1.70396991      3.49498667
    H      2.99823808      2.19877351      2.67816334
    C      3.23250203      0.06926739      2.83739421
    N      2.80899242     -0.98979598      2.95450929
    C      2.73011973     -2.88863478     -0.03620246
    H      1.78304956     -3.27397511      0.27918791
    H      2.86697727     -1.90620437      0.36504509
    H      3.51115148     -3.52968344      0.31585593
    C      2.77211848     -2.82536716     -1.57432902
    N      2.80338845     -2.77826155     -2.71953416
    C     -3.58622713     -1.68172590     -0.21284678
    H     -3.37226132     -0.71505881      0.19295312
    H     -2.86142998     -2.38519209      0.14028705
    H     -4.56294579     -1.99022589      0.09658418
    C     -3.53159920     -1.61652894     -1.75049600
    N     -3.49092623     -1.56798685     -2.89534575
    C     -0.59182362     -3.40558844     -3.54125086
    H      0.38229072     -3.65644542     -3.90604151
    H     -0.79443122     -2.37487297     -3.74490466
    H     -1.32324605     -4.01590257     -4.02852592
    C     -0.64951514     -3.64960603     -2.02180125
    N     -0.69246910     -3.83128821     -0.89050196
    C     -2.23875224      1.75966234     -3.38394502
    H     -2.80117334      0.96027971     -3.81934149
    H     -1.19598991      1.60179621     -3.56456647
    H     -2.54015291      2.68797359     -3.82245951
    C     -2.49629334      1.80131083     -1.86620394
    N     -2.68804439      1.83232001     -0.73617672
    C     -3.13162560      2.78452211      2.50400867
    H     -3.57246031      3.03619717      1.56208267
    H     -2.12762572      3.15295968      2.53772968
    H     -3.70096160      3.22784859      3.29408287
    C     -3.12274418      1.25396201      2.67402903
    N     -3.11613156      0.11439045      2.80061692
    C     -0.14016842     -0.65767272      0.76544914
    H     -0.92036848     -0.03933138      1.15767616
    H      0.79592101     -0.36513617      1.19330198
    H     -0.33937129     -1.68045640      1.00861749
    C     -0.07782922     -0.49661174     -0.76483619
    N     -0.03141486     -0.37669452     -1.90420317
    C      0.55152629      2.96439589      0.40166236
    H     -0.41816753      2.58544336      0.64862200
    H      0.71195757      3.89219261      0.90994786
    H      1.29750550      2.25898336      0.70300479
    C      0.64260712      3.18973769     -1.11903661
    N      0.71042094      3.35751490     -2.25126612
