60
Energy:   -251.63678827
    C      2.22222009      0.78041401      4.27928963
    H      1.40958306      1.45407243      4.10405955
    H      3.09783286      1.14047723      3.78073587
    H      2.41149676      0.71564685      5.33042171
    C      1.85916453     -0.61415856      3.73618927
    N      1.58885317     -1.65248123      3.33182636
    C     -4.78643791     -2.14788344     -0.07958988
    H     -5.74279012     -2.61601803      0.02595944
    H     -4.74293617     -1.28058198      0.54554600
    H     -4.01905939     -2.83506466      0.20991187
    C     -4.57706671     -1.73335736     -1.54789905
    N     -4.42118033     -1.42472384     -2.64112197
    C      0.61283906      0.19563408      0.51561835
    H      0.20198357     -0.77177226      0.71617487
    H      0.01978836      0.94255616      1.00069294
    H      1.61584471      0.24083962      0.88553082
    C      0.61413519      0.44790487     -1.00357807
    N      0.61510022      0.63573194     -2.13468886
    C     -1.96315449     -1.62922072      2.64821173
    H     -1.10792479     -2.27203355      2.63165823
    H     -2.28592523     -1.43914601      1.64591948
    H     -2.75339671     -2.10095852      3.19399536
    C     -1.59213861     -0.29866410      3.32906877
    N     -1.31590043      0.69199578      3.83599778
    C     -1.28013924      3.55278763      2.06928687
    H     -1.58790587      4.49787436      2.46550773
    H     -0.43389387      3.19471751      2.61751462
    H     -2.08356059      2.85133523      2.15518074
    C     -0.89881927      3.71748993      0.58636131
    N     -0.61490921      3.84011827     -0.51774418
    C      3.80410132     -0.40004335     -3.32661910
    H      4.46967186      0.26765580     -3.83267629
    H      2.80021679     -0.21324561     -3.64634016
    H      4.06953051     -1.41070209     -3.55686973
    C      3.90900112     -0.17528662     -1.80672422
    N      3.98710379     -0.00794501     -0.67509339
    C     -1.08015473     -2.24424254     -3.30533118
    H     -0.30406001     -2.87056370     -3.69301529
    H     -0.84536129     -1.21978385     -3.50596893
    H     -2.00876243     -2.49566809     -3.77370286
    C     -1.19857732     -2.45539851     -1.78447969
    N     -1.28674831     -2.61261373     -0.65213663
    C     -2.66565506      1.60731062     -2.37023551
    H     -2.60553295      0.74926713     -3.00666844
    H     -1.78714084      2.20546293     -2.49403241
    H     -3.52906150      2.18376332     -2.62933142
    C     -2.77393007      1.15169785     -0.90316580
    N     -2.85454573      0.81247344      0.18913429
    C      2.23126934     -3.14061830      0.39542222
    H      2.77272966     -2.28031347      0.72948284
    H      2.72220823     -4.02685655      0.73960221
    H      1.23579508     -3.10955726      0.78652999
    C      2.17812494     -3.14799828     -1.14364283
    N      2.13855652     -3.15349301     -2.28954671
    C      2.87181102      3.40035290     -0.86739810
    H      3.07558108      4.43932721     -1.02202778
    H      2.03726447      3.10711148     -1.46942852
    H      3.73015520      2.82374988     -1.14248593
    C      2.54428307      3.15693189      0.61755026
    N      2.30042362      2.97569389      1.72316182
