60
Energy:   -251.44547026
    C      2.04371355     -2.63813936     -4.25126368
    H      2.92096081     -3.01451804     -4.73466466
    H      1.57809137     -1.90569267     -4.87705671
    H      1.36069588     -3.44267165     -4.07487275
    C      2.43431668     -1.99268491     -2.90872216
    N      2.72513847     -1.51211474     -1.90913897
    C      1.07223469     -1.91653365      4.66185377
    H      1.94772320     -2.44286070      4.34342028
    H      0.76707019     -2.27939236      5.62107599
    H      1.28921324     -0.87089148      4.72857603
    C     -0.06089446     -2.14171431      3.64356502
    N     -0.90456063     -2.30937155      2.88540276
    C      2.07723038      0.16691092      1.13347460
    H      1.90526734     -0.21008219      2.11998618
    H      2.43468113      1.17364169      1.19365104
    H      2.80667389     -0.44174103      0.64117992
    C      0.76041100      0.13656320      0.33556123
    N     -0.22002088      0.11396794     -0.25852154
    C      2.39008077      1.97339956     -2.34517535
    H      1.61270194      2.18132913     -1.63994657
    H      2.88756934      2.88398069     -2.60641512
    H      3.09374180      1.29454993     -1.91052213
    C      1.78016654      1.34061514     -3.60976561
    N      1.32605767      0.86947837     -4.55131054
    C     -2.87996253     -2.24219095      0.12962258
    H     -1.83105929     -2.09930238      0.28545914
    H     -3.03143907     -3.03493055     -0.57288570
    H     -3.34741998     -2.49455347      1.05843676
    C     -3.49879794     -0.94367556     -0.42037790
    N     -3.95954903      0.02312817     -0.82987825
    C     -1.66268030     -0.19742098     -3.49500156
    H     -1.13045369      0.46877186     -2.84860995
    H     -2.71462363     -0.03315109     -3.38856040
    H     -1.37427330     -0.01645747     -4.50938448
    C     -1.32976660     -1.65312128     -3.11856418
    N     -1.08189723     -2.73695633     -2.83828944
    C     -1.80468688      3.01540158     -1.21075835
    H     -1.97699505      3.76903178     -1.95052290
    H     -2.42014804      2.16498425     -1.41787434
    H     -0.77528697      2.72417679     -1.23132661
    C     -2.15245490      3.57384965      0.18164717
    N     -2.41138401      3.98963962      1.21835638
    C     -2.42962098      0.88154509      2.53975181
    H     -3.11573584      1.63997261      2.85429002
    H     -2.78903835     -0.07651603      2.85254110
    H     -2.34275941      0.89916320      1.47342927
    C     -1.04984942      1.14351180      3.17157763
    N     -0.02254677      1.33855792      3.64200068
    C      0.73178603     -3.66793552     -0.06537132
    H     -0.13403088     -4.08319673      0.40666617
    H      1.10726823     -4.35778838     -0.79201790
    H      0.46916856     -2.74962250     -0.54769107
    C      1.81547623     -3.39908120      0.99525722
    N      2.62233284     -3.19890693      1.78494338
    C      0.61113093      4.57896061      2.97325945
    H      0.94979595      5.58989578      3.06390307
    H      1.05766125      3.98297633      3.74157742
    H     -0.45384426      4.54932488      3.07249992
    C      1.01380545      4.02439383      1.59416232
    N      1.31361494      3.61149365      0.56736181
