53
Energy:  -1384.70897581
O    0.40935796  -0.90365323   3.18910990
H   -0.10014694  -0.53203455   2.46901535
H    1.05933551  -1.46067900   2.76076036
O   -3.41107161  -0.43109299   1.25145709
H   -2.48364776  -0.19423740   1.24742078
H   -3.54449637  -0.89262361   0.42355663
O   -3.07488242  -1.75386370  -1.12991187
H   -2.55735265  -2.44458585  -0.71603059
H   -2.43269829  -1.08888038  -1.37816290
O    2.03723986   1.79572716  -3.45917852
H    1.47268863   2.33364178  -2.90405546
H    2.55668427   1.27856240  -2.84358940
O    0.22137251  -0.24291152  -3.79989566
H   -0.31845191  -0.15612966  -3.01421738
H    0.80878109   0.51234364  -3.77209891
O    1.89255835  -1.99159752  -2.49920226
H    1.43061198  -2.00394740  -1.66093925
H    1.32131593  -1.48976202  -3.08064449
O    2.27077641  -2.22194750   1.68810449
H    2.96847713  -1.58985785   1.51516457
H    1.66068829  -2.11148082   0.95884361
O    3.23996409   0.18788111  -1.53899097
H    2.94870382  -0.64371953  -1.91294240
H    2.47821524   0.51606772  -1.06122106
O    3.99561416  -0.14974675   1.13516787
H    3.37404189   0.45250351   1.54403752
H    3.83298322  -0.06143897   0.19602743
O   -0.89904917   2.42690794   2.31462922
H    0.03596478   2.62345965   2.37249274
H   -0.93769526   1.56255429   1.90520145
O    1.93387711   1.36022810   2.22595926
H    1.45884575   0.67142024   2.69084719
H    1.62058496   1.30066341   1.32344503
O   -2.23608890   2.41360469  -1.66449309
H   -2.65854478   2.48571233  -0.80859393
H   -1.85722635   1.53460459  -1.67183090
O   -3.32252179   2.38218018   0.89780876
H   -2.52396084   2.54010547   1.40138781
H   -3.48005609   1.44218339   0.98624424
O   -2.05308722  -2.38591568   2.79104656
H   -1.23792977  -1.93992823   3.02092777
H   -2.57793805  -1.71591343   2.35302779
O   -1.39724445  -3.41391504   0.30232288
H   -0.65387734  -2.85864605   0.06713456
H   -1.60879833  -3.16348820   1.20163551
O    0.44670055   3.11737233  -1.65223735
H    0.71684208   2.38898986  -1.09302863
H   -0.50164244   3.01736656  -1.73516056
S   -0.07964657  -0.13658641  -0.19505137
O    1.02129075   0.86426223  -0.27466941
O    0.49619554  -1.51071873  -0.21136740
O   -0.84495561   0.06626261   1.06719043
O   -0.99111698   0.03384827  -1.36135911
