53
Energy:  -1376.43470619
O   -0.33764263  -0.46508486   3.22111947
H   -0.79433138  -0.22773918   2.41406664
H    0.30473293  -1.12066337   2.94945366
O   -2.98409736  -2.06881225   0.88783979
H   -2.46484103  -1.26564290   0.92687440
H   -2.39926752  -2.71357344   0.48973312
O   -3.29021493  -1.40635237  -1.80331716
H   -3.43730192  -1.48650007  -0.86088752
H   -2.56156589  -0.79050132  -1.88096955
O    3.20314383   2.58842248  -2.39413442
H    2.34498916   2.89034858  -2.09640460
H    3.30663575   1.72572708  -1.99254019
O   -0.23178874  -1.87583963  -3.52632199
H   -0.56613816  -2.59820966  -2.99469819
H   -0.46160216  -1.08840814  -3.03299727
O    2.12202987  -2.16692352  -2.07520090
H    1.57365700  -2.08756173  -1.29467496
H    1.51737700  -2.04336128  -2.80688330
O    1.53208378  -2.11728685   2.10065881
H    2.29209145  -1.54479943   1.99635958
H    1.07703873  -2.06760451   1.26000578
O    3.23308797   0.13596545  -1.01919956
H    3.04246544  -0.67781527  -1.48573556
H    2.37992136   0.44128391  -0.71078551
O    3.47936557  -0.20640743   1.73994020
H    2.85445708   0.46400221   2.01611433
H    3.50709147  -0.13031023   0.78617276
O    0.07440911   3.78666765   1.37816253
H    0.53285658   3.07502123   1.82494787
H    0.33503847   3.70159073   0.46106596
O    1.38355087   1.51596615   2.32875714
H    0.79822057   0.93581724   2.81563241
H    1.21549629   1.30981043   1.40925220
O   -1.87172647   2.56455773  -1.93396176
H   -2.16701049   2.64427590  -1.02694235
H   -1.58382944   1.65515723  -2.01357265
O   -2.32727255   2.57026221   0.79232114
H   -1.54681829   3.04528124   1.07776801
H   -2.08200869   1.64703219   0.85334416
O   -2.54071255  -2.12226699   3.64059408
H   -1.77027685  -1.55424646   3.63693995
H   -2.80606516  -2.17267754   2.72229205
O   -1.42934017  -3.35125670  -1.39400524
H   -2.10402011  -2.72326455  -1.65220030
H   -0.75912083  -2.82017122  -0.96390514
O    0.70661196   3.20646210  -1.24480736
H    0.83381369   2.33791374  -0.86313300
H   -0.16053159   3.16668929  -1.64818316
S   -0.30831220  -0.18862570  -0.31479390
O    0.80696085   0.78728341  -0.16030307
O    0.22796410  -1.57530946  -0.21673326
O   -1.31422493   0.03217258   0.76200122
O   -0.95394884   0.00135066  -1.64414048
