53
Energy:  -1384.82711486
O   -0.57575066  -0.69490355   3.35875772
H   -0.85191754  -0.56039136   2.45218717
H    0.25795264  -1.16001412   3.28916741
O   -3.06550449  -2.11745141   0.71453225
H   -2.46105981  -1.38347573   0.82479637
H   -2.55932064  -2.77576055   0.23846624
O   -3.07590001  -1.34101337  -1.99886783
H   -3.30815870  -1.43234391  -1.07477558
H   -2.33329503  -0.73705591  -2.00111818
O    2.49212824   2.13952396  -2.74758878
H    1.90033690   2.59919690  -2.15200868
H    2.87870324   1.44554783  -2.21355812
O    0.62669379   0.43201043  -3.84613714
H    0.00668445   0.36494248  -3.11996762
H    1.26026182   1.09031620  -3.56073056
O    1.90739106  -1.72408812  -2.75798901
H    1.34193433  -1.89099545  -2.00391177
H    1.44358115  -1.05582256  -3.26250201
O    2.13614047  -1.28372644   3.08499857
H    2.05645228  -0.34348393   2.92429495
H    2.37936319  -1.65256043   2.23586016
O    3.28174072   0.00073611  -1.16716570
H    2.93243460  -0.64197863  -1.78452689
H    2.52085828   0.28546733  -0.66098601
O    2.77653809  -2.15538892   0.57801747
H    1.87859862  -2.15407303   0.24645327
H    3.21493322  -1.46091451   0.08633989
O    0.04412546   3.59649983   1.75878074
H    0.49951802   2.85630970   2.15998897
H    0.31979254   3.57967792   0.84228932
O    1.22236901   1.27632269   2.60707027
H    0.47934210   0.79016643   2.96455447
H    1.20854613   1.08099337   1.67011390
O   -1.87588765   2.68769004  -1.48705914
H   -2.18160254   2.63469328  -0.58154184
H   -1.58616685   1.79938390  -1.69491948
O   -2.29542778   2.25441196   1.19208948
H   -1.52371851   2.74103055   1.48174273
H   -1.99544914   1.34810784   1.12239368
O   -2.75253290  -2.43679910   3.46299806
H   -2.00452053  -1.84745562   3.55986704
H   -2.96220498  -2.40702578   2.52951908
O   -1.55165483  -3.48160150  -1.13056207
H   -2.05622998  -2.88183103  -1.68002650
H   -0.77548592  -2.98111926  -0.87894491
O    0.73652953   3.16102861  -0.86585275
H    0.89491861   2.27863045  -0.53041538
H   -0.16083049   3.13406294  -1.19789144
S   -0.17194881  -0.25866015  -0.31563273
O    0.96001753   0.65511868   0.00648598
O    0.34353657  -1.64579300  -0.48952141
O   -1.16302429  -0.23290020   0.79666482
O   -0.82832506   0.18893393  -1.57616031
