53
Energy:  -1376.91981499
O   -1.43036318  -0.89806757   3.18250971
H   -1.62578036  -0.37368849   2.40593353
H   -1.44911570  -1.80324709   2.87181657
O   -3.69715229  -1.60414881   0.16731313
H   -3.06200008  -0.94053554   0.43644313
H   -3.23567945  -2.12564318  -0.48943514
O   -3.30831784  -0.33570347  -2.47199110
H   -3.69943541  -0.44407619  -1.60509189
H   -2.43655302   0.01983442  -2.29921740
O    2.84376045   2.26724924  -1.92675222
H    2.18324581   2.70647121  -1.39099452
H    3.17188756   1.56013180  -1.37128000
O    1.33720746   0.31125801  -3.20415728
H    0.50327674   0.33610301  -2.73493013
H    1.82867007   1.05696809  -2.85975514
O    3.03801041  -1.65927484  -2.24202437
H    2.58018510  -2.18886728  -1.58921530
H    2.35592086  -1.10722657  -2.62442260
O    1.94530872  -2.93461048  -0.06985231
H    2.29632377  -2.51109663   0.71350987
H    1.07709437  -2.54783407  -0.18316467
O    3.30620057   0.15193537  -0.25954071
H    3.32566097  -0.50586518  -0.95463177
H    2.37646535   0.26464636  -0.06175168
O    3.01922029  -1.37258774   1.99994260
H    2.33637988  -0.87379624   2.44846000
H    3.26507999  -0.82565998   1.25384952
O    0.20053173   3.04038635   2.54476071
H    0.46393454   2.15329518   2.78954647
H    0.53542474   3.15331114   1.65519536
O    0.99474718   0.35761053   2.92822729
H    0.19711927  -0.10959250   3.17670845
H    0.95023244   0.41776371   1.97395695
O   -1.49112871   3.06638526  -1.29031101
H   -1.88834413   2.99252574  -0.42255728
H   -1.32453347   2.16194321  -1.55575868
O   -2.26361384   2.68387863   1.33368956
H   -1.48673833   2.89009007   1.85347137
H   -2.18436612   1.74897481   1.14419947
O   -1.75449956  -3.11551523   1.57372955
H   -1.12776551  -2.76021078   0.94349545
H   -2.59723757  -2.74799374   1.30736055
O   -2.30907374  -2.81300512  -1.85695154
H   -2.58983996  -2.02616163  -2.32415546
H   -1.51102067  -2.54849054  -1.39937620
O    0.94774713   3.07527446  -0.11086018
H    0.95097750   2.13160913   0.04950547
H    0.13071933   3.23566151  -0.58306080
S   -0.55082299  -0.16494315  -0.23349063
O    0.70491001   0.44317998   0.28940601
O   -0.38176136  -1.64167484  -0.33732549
O   -1.67532848   0.14219454   0.69454701
O   -0.85111213   0.39652773  -1.58059007
