53
Energy:  -1377.36804805
O   -0.38364902  -0.33363760   3.29750499
H   -0.74200162  -0.08205861   2.44631566
H    0.48191804  -0.69010675   3.09761690
O   -3.45307933  -0.97960013   0.93963122
H   -2.64759159  -0.46514235   0.88714756
H   -3.67363891  -1.17372632   0.02864255
O   -3.82025023  -1.33599772  -1.75396598
H   -2.99581517  -1.81406745  -1.84334172
H   -3.58216648  -0.41916606  -1.89168918
O    3.38113994   1.42463761  -0.98460289
H    2.57380967   1.59461345  -0.49925981
H    3.10858437   0.87361574  -1.71830597
O    2.24268100  -0.37790193  -2.74655185
H    2.57229702  -1.06267269  -2.16459469
H    1.34530031  -0.22355470  -2.45139650
O   -1.29879376  -2.35203547  -1.89667249
H   -1.03916424  -2.76793014  -1.07456788
H   -0.85661281  -1.50315368  -1.88630102
O    2.41564218  -0.60448704   2.55170752
H    2.22438892   0.32321300   2.68964472
H    1.94850759  -0.82874372   1.74689321
O    3.11597356  -2.04937354  -0.76002845
H    2.28073865  -1.80035693  -0.36429469
H    3.77078611  -1.54849130  -0.27364450
O    4.55561161  -0.30071198   0.79284591
H    3.89096401  -0.40294689   1.47403857
H    4.20059761   0.37043332   0.20995579
O   -0.15033751   3.75180341  -0.75737773
H    0.35004944   3.06061306  -0.32367201
H   -0.24711749   3.44780869  -1.65984805
O    1.35333325   1.88011367   2.88217064
H    0.59121831   1.38371671   3.18050389
H    1.25764539   1.91784520   1.93051313
O   -2.70879317   1.15779108  -2.03494812
H   -2.80541255   1.69608400  -1.24936727
H   -1.86400116   0.72148895  -1.92450008
O   -2.46198308   2.64439668   0.24386462
H   -1.70513702   3.15482988  -0.04401355
H   -2.08761168   1.83373817   0.58869890
O   -2.04711207  -2.49034285   2.71621421
H   -1.47328910  -1.80197199   3.05252450
H   -2.64478040  -2.03580511   2.12256461
O   -0.47057724  -3.27054770   0.58175854
H   -1.04401028  -3.08870422   1.32629822
H    0.11673127  -2.51579122   0.54122183
O   -0.53121509   2.43739367  -3.13582013
H   -0.08246680   1.69850805  -2.72483976
H   -1.46193149   2.25491615  -3.00658862
S    0.14514501   0.25436571  -0.02774671
O    0.96362432   1.47404663   0.22239341
O    0.91904025  -0.95400517   0.37353371
O   -1.11119592   0.32709324   0.77001152
O   -0.19088862   0.17032814  -1.47692548
