53
Energy:  -1378.17226089
O   -0.56767948  -0.78675746   3.08359929
H   -0.96005999  -0.49852400   2.25946892
H    0.10160987  -1.41928280   2.82245698
O   -3.22405642  -1.97366785   0.56287547
H   -2.65752568  -1.20645610   0.64448983
H   -2.64480516  -2.66723694   0.24718299
O   -2.94733620  -1.62423649  -2.21729856
H   -3.28236144  -1.59519433  -1.32111416
H   -2.20421081  -1.02091833  -2.21537000
O    2.56352329   2.01903390  -2.74788795
H    1.87665891   2.51361459  -2.30085427
H    2.93408583   1.45537012  -2.06877206
O    1.09410955  -0.10412973  -3.72735548
H    0.34371177  -0.09158138  -3.13323634
H    1.59838672   0.67514353  -3.49354023
O    2.32363266  -1.93565970  -2.08045294
H    1.64720145  -1.99572902  -1.40586837
H    1.92746311  -1.40409480  -2.77090227
O    1.48548244  -2.29574193   2.07948413
H    2.24212292  -1.70946555   2.07683057
H    1.08983338  -2.18085471   1.21548494
O    3.31135007   0.23230768  -0.75076403
H    3.16320899  -0.58865385  -1.22013406
H    2.44027159   0.50391290  -0.46148089
O    3.41447029  -0.32529201   1.97911006
H    2.73159429   0.28451608   2.25847776
H    3.49632787  -0.17861625   1.03676330
O   -0.50146636   3.39290098   2.91532401
H    0.16004452   2.70237664   2.87276418
H   -1.08855905   3.20833062   2.18218841
O    1.21128840   1.23973406   2.53650941
H    0.60288370   0.58599486   2.88103899
H    1.09924867   1.19495773   1.58694424
O   -1.97995812   2.35664277  -2.23212216
H   -2.25322353   2.50938570  -1.32756289
H   -1.63444408   1.46397791  -2.23096189
O   -1.78405993   2.69554609   0.55311057
H   -0.94230416   2.91952501   0.15623209
H   -1.74519585   1.74749845   0.67931323
O   -2.95521554  -2.21021561   3.31856720
H   -2.12180129  -1.74470853   3.38896393
H   -3.16442873  -2.18791458   2.38477689
O   -1.47528098  -3.53658340  -0.87526995
H   -1.91624411  -3.03674906  -1.56225538
H   -0.73182881  -2.99013249  -0.62051098
O    0.45977796   3.13928880  -1.28190181
H    0.67113110   2.32083420  -0.83279852
H   -0.31702932   2.93390882  -1.80211461
S   -0.25366198  -0.21229927  -0.37237347
O    0.80958224   0.79580310  -0.10155742
O    0.31667858  -1.58271453  -0.24286036
O   -1.36205090  -0.04088027   0.60853914
O   -0.77885786  -0.02140537  -1.75361524
