53
Energy:  -1378.68363878
O   -1.13590515  -1.69678892  -3.03016755
H   -0.86367925  -1.58513529  -2.11931170
H   -1.21033857  -0.80483874  -3.36945562
O    1.47883008  -2.46517867  -3.44516651
H    0.54440244  -2.26120495  -3.40680567
H    1.91378121  -1.63690677  -3.24264486
O    0.83750501   3.68950916  -1.06670258
H   -0.02932734   3.86730371  -0.70170584
H    0.79032285   2.78146341  -1.36579892
O    3.25917728  -1.09296458  -0.13555504
H    2.64531255  -0.48932141   0.28279514
H    2.74401736  -1.88249176  -0.30135292
O   -2.59503263  -0.11545307   2.41217071
H   -2.20642959   0.32290040   1.65515965
H   -1.98085458   0.05092790   3.12724731
O   -0.63549495   0.53983543   4.21026533
H   -0.51047165   1.34235313   3.70374153
H    0.01624188  -0.06819331   3.86130687
O    1.41737067  -3.04688353  -0.75114870
H    0.75572361  -2.36818516  -0.61764391
H    1.54764005  -3.07188077  -1.69911330
O    2.00786611   2.86374861   1.29221559
H    1.85918067   1.92588281   1.17166588
H    1.73195988   3.25873637   0.46511688
O   -1.59943655   3.78009016   0.20421950
H   -1.65049840   2.84402843   0.01079515
H   -1.26974587   3.82202497   1.10187054
O    1.16123074  -1.11838758   2.99630094
H    1.22548628  -0.56945535   2.21477904
H    0.95308575  -1.99032176   2.66068465
O    2.60395462  -0.11409053  -2.60600561
H    2.99043650  -0.40750163  -1.78091560
H    1.83271085   0.38883316  -2.34431370
O    0.44139390  -3.54608882   1.85568062
H   -0.45031817  -3.24199350   1.68654318
H    0.87154971  -3.51543149   1.00112931
O   -1.45282977   0.98491852  -3.47562570
H   -0.70003387   1.11280333  -2.89841200
H   -2.19762999   0.89185288  -2.88161959
O   -3.19208094   0.28357796  -1.45182990
H   -2.65178106   0.63817263  -0.74573465
H   -2.90478322  -0.62515988  -1.54064099
O   -1.96261358  -2.45960351   1.13447865
H   -1.43030758  -2.03577720   0.46123767
H   -2.28152726  -1.73865416   1.67739480
O   -0.44137406   2.66447029   2.46849505
H   -0.79399478   2.06787112   1.80822246
H    0.47100389   2.79577284   2.21050675
S   -0.01327559   0.33718064  -0.23244653
O    0.39583490   1.02687892  -1.48825101
O   -0.36845996  -1.07768547  -0.53592294
O    1.11413392   0.36835146   0.74124552
O   -1.19461120   1.03117767   0.35314232
