53
Energy:  -1378.88219727
O   -0.46876029  -0.70949950   3.22182953
H   -0.82925657  -0.39040847   2.39451146
H    0.27105236  -1.25984220   2.96486262
O   -3.71773966  -1.00066386   0.54965733
H   -2.87943863  -0.56993321   0.71685282
H   -3.59866771  -1.43858138  -0.29312495
O   -2.74721424  -2.11751319  -1.75177488
H   -2.28261055  -2.74351896  -1.19635430
H   -2.12958833  -1.39558058  -1.86832270
O    2.43031814   1.90817628  -2.87426280
H    1.78204030   2.42496170  -2.39582730
H    2.84730325   1.36646685  -2.20425821
O    0.90061035  -0.24629974  -3.67246983
H    0.18630568  -0.21148637  -3.03623975
H    1.41421114   0.54283140  -3.50008034
O    2.21597815  -2.02234997  -2.02804309
H    1.58513476  -2.04633834  -1.30853422
H    1.78216842  -1.51032495  -2.71059077
O    1.66348715  -2.09866475   2.22513148
H    2.39912922  -1.49071718   2.15122383
H    1.22903677  -2.05436579   1.37335550
O    3.30721264   0.19552810  -0.85878922
H    3.13099516  -0.64628799  -1.27893792
H    2.45270568   0.48996170  -0.54357731
O    3.53176383  -0.10348547   1.91087503
H    2.84871846   0.51656723   2.16624831
H    3.57079977  -0.03798452   0.95671693
O    0.95657608   4.10131517   1.40944568
H    1.04972748   3.25848763   1.85351368
H    0.77787908   3.87342578   0.49710492
O    1.30769598   1.46117184   2.44665909
H    0.69280497   0.88838415   2.90497683
H    1.15074706   1.28798297   1.51843255
O   -2.01322304   2.33713520  -1.95374474
H   -2.53313818   2.32135959  -1.15020804
H   -1.63094721   1.46135484  -2.00947429
O   -3.28656689   1.85466502   0.45731141
H   -2.46700666   1.42586738   0.70365561
H   -3.90085440   1.13451438   0.31495354
O   -2.51789946  -2.59550345   2.47326453
H   -1.83411017  -2.01201039   2.80220204
H   -3.02572782  -2.05362626   1.86935119
O   -1.40243966  -3.62132859   0.14244852
H   -0.68319808  -2.99910016   0.03402725
H   -1.78286427  -3.40254654   0.99312083
O    0.53410096   3.16715800  -1.23685674
H    0.71014038   2.33734455  -0.79340257
H   -0.36003510   3.07802327  -1.56671665
S   -0.22927257  -0.21051542  -0.24177859
O    0.85266995   0.80408601  -0.10005938
O    0.34392452  -1.57510573  -0.07020250
O   -1.27042519   0.02516035   0.79772041
O   -0.84325958  -0.09620228  -1.59457292
