53
Energy:  -1393.64772727
O   -0.42934659  -0.67489787   3.18756230
H   -0.86015449  -0.40239520   2.37739028
H    0.19478515  -1.34678567   2.91323001
O   -3.25848186  -1.91221573   0.79948794
H   -2.65257977  -1.17264244   0.84581129
H   -2.74549720  -2.61848847   0.40673179
O   -3.17651116  -1.44897373  -1.99328543
H   -3.44245743  -1.42752632  -1.07402245
H   -2.40744012  -0.88054739  -2.03394350
O    2.55086652   1.83076183  -2.83489599
H    1.93749266   2.36914223  -2.33474511
H    2.91571914   1.22257697  -2.19206974
O    0.85159711  -0.14490928  -3.75049199
H    0.14099594  -0.09318230  -3.11127203
H    1.42308963   0.59186308  -3.53417132
O    2.06825325  -2.08834734  -2.22377183
H    1.43068303  -2.12242509  -1.51062755
H    1.66601451  -1.51725634  -2.87821122
O    1.43730307  -2.33027384   2.05574875
H    2.21271065  -1.77192978   1.99894344
H    1.01051595  -2.23562609   1.20420521
O    3.25650938  -0.02217799  -0.89405892
H    3.03949321  -0.82480424  -1.36832354
H    2.41650298   0.29536091  -0.56271295
O    3.44367516  -0.44895879   1.85680435
H    2.81572604   0.21768986   2.13517700
H    3.49343975  -0.34966747   0.90606960
O    0.13970630   3.63778966   1.51491282
H    0.56861623   2.89621645   1.94192253
H    0.39944016   3.56878068   0.59621378
O    1.36407268   1.30000256   2.43821713
H    0.75444185   0.71695387   2.89058460
H    1.21553456   1.12789547   1.50840671
O   -1.84524658   2.57347546  -1.82040058
H   -2.14549152   2.62082667  -0.91274278
H   -1.58341007   1.66048606  -1.93924439
O   -2.29438972   2.49682755   0.89559592
H   -1.50497008   2.94272155   1.20256013
H   -2.06627295   1.56733092   0.91078125
O   -2.79812066  -2.10921379   3.53888495
H   -1.96657801  -1.63526522   3.55077689
H   -3.06451438  -2.10344308   2.61951945
O   -1.71988691  -3.49389370  -0.84362542
H   -2.18704052  -2.94117403  -1.47012388
H   -0.93547737  -2.99299277  -0.61994760
O    0.74296481   3.10681086  -1.14204344
H    0.85598048   2.24380753  -0.74369112
H   -0.14141206   3.08835471  -1.50778757
S   -0.29388547  -0.25133994  -0.32211280
O    0.84021253   0.68566343  -0.08558290
O    0.20246590  -1.65524017  -0.26920272
O   -1.33092967  -0.05125194   0.72888870
O   -0.88729067   0.01546890  -1.66255427
