53
Energy:  -1377.30764459
O   -0.41512399  -0.32852169   3.15123369
H   -0.75805305  -0.08593701   2.29112662
H    0.30097572  -0.93478197   2.96180948
O   -3.43025864  -1.12259970   0.29251995
H   -2.69232682  -0.53177454   0.44289986
H   -3.24680000  -1.52440039  -0.55667436
O   -2.14733026  -2.26125413  -1.98646438
H   -1.78255071  -2.69606514  -1.21568094
H   -1.72305620  -1.40334825  -2.00132632
O    2.77584315   1.01721456  -2.31365262
H    2.18135948   1.22904864  -1.59396704
H    2.22524629   0.56914846  -2.95576765
O    0.91787519  -0.37299225  -3.83202588
H    1.00208921  -1.29822470  -3.60162456
H    0.24383833  -0.03870779  -3.24028264
O    0.60255479  -2.81578997  -2.59225506
H    0.80054078  -2.36157815  -1.77327704
H   -0.35184485  -2.78546526  -2.65884029
O    1.61073014  -1.87134394   2.25244781
H    2.37278284  -1.29247352   2.27285775
H    1.27459254  -1.79418838   1.35953662
O    3.34974075  -0.95708188  -0.52120383
H    2.43117444  -1.19821531  -0.40152739
H    3.33271567  -0.27047410  -1.18792097
O    3.54584799   0.03697066   2.03745931
H    2.87775501   0.72052846   2.08876583
H    3.56224607  -0.21373468   1.11381989
O   -0.15991898   3.99704297   1.55163528
H    0.38092393   3.28441626   1.89205262
H   -0.00778505   3.98346496   0.60669996
O    1.35603131   1.74901594   2.24051981
H    0.73864482   1.14627604   2.65497171
H    1.24322540   1.60015084   1.30171959
O   -2.20673571   2.44632037  -1.86276648
H   -2.42574205   2.49181520  -0.93206873
H   -1.77536067   1.59816821  -1.96661904
O   -2.41903873   2.56261928   0.89946269
H   -1.71441427   3.13782824   1.19757487
H   -2.02990881   1.68809011   0.89654701
O   -2.30847078  -2.35058856   2.48381346
H   -1.70936921  -1.67950868   2.81086230
H   -2.80935022  -1.91090934   1.79676630
O   -1.02780785  -3.36663645   0.25364130
H   -0.33723952  -2.71564447   0.12891492
H   -1.44366635  -3.12008313   1.07977991
O    0.16335445   3.63510150  -1.12965662
H    0.57493058   2.80390490  -0.89312092
H   -0.67774248   3.38598468  -1.51270831
S   -0.08534951   0.04976586  -0.41397028
O    0.90324675   1.16167368  -0.33373046
O    0.61744735  -1.25295319  -0.24338411
O   -1.10204603   0.21041316   0.66335077
O   -0.76004614   0.07992980  -1.74211735
