53
Energy:  -1378.72958780
O   -1.03038905  -0.63210527   3.22421419
H   -1.08556333  -0.30776250   2.32533188
H   -0.35162095  -1.30637613   3.19481137
O   -3.02706704  -1.50849111  -0.29899840
H   -2.44775682  -0.83516197   0.05773594
H   -2.47308393  -2.00885473  -0.89814013
O   -2.02227781   1.23525488  -3.01917898
H   -1.35386182   0.68184632  -2.61521006
H   -2.82579644   1.02817398  -2.54199226
O    2.29703814   2.19817287  -2.27859726
H    1.64022068   2.16377202  -1.58315549
H    2.24124079   1.34248462  -2.70393961
O    2.07989902  -0.42561206  -3.02315428
H    1.20029809  -0.40970486  -2.64595271
H    2.65170139  -0.65074252  -2.28926725
O   -1.04854751  -2.79131763  -1.68314928
H   -0.51671366  -3.11361138  -0.95547398
H   -0.73897027  -1.89741017  -1.82917405
O    1.02234544  -2.48619853   3.31420261
H    1.54092369  -1.69221196   3.18422655
H    0.91923835  -2.85198967   2.43568249
O    3.54597370  -0.76303004  -0.70831030
H    2.70673860  -0.79766718  -0.24927156
H    3.86424957   0.12738387  -0.55966508
O    4.18688757   1.88972819  -0.36320162
H    3.65445499   2.11368412   0.40007496
H    3.61846306   2.06696471  -1.11267653
O    2.37624745   2.46942648   1.60922841
H    2.29539980   1.71073322   2.18722499
H    1.70185816   2.33656190   0.94306181
O    1.78844267   0.11213944   2.91595992
H    0.90327722   0.30070196   3.22766193
H    1.67070658  -0.14902998   2.00263599
O   -4.19199634   0.71337998  -1.40990732
H   -3.85146400   1.33170162  -0.76341840
H   -3.89621395  -0.14323092  -1.10174763
O   -2.91797185   2.29096266   0.40671252
H   -2.39125786   2.81897773  -0.19329106
H   -2.34780451   1.56079194   0.64752731
O   -2.17095115  -2.78229048   1.92874522
H   -1.96764077  -2.03769475   2.49484940
H   -2.59760875  -2.39369769   1.16507594
O    0.28840439  -3.17271544   0.75993883
H    0.61970005  -2.28782448   0.60682768
H   -0.57707603  -3.04129272   1.14711265
O   -1.22203192   3.35243460  -1.44032139
H   -0.51499200   2.91023807  -0.97043990
H   -1.48523607   2.73037996  -2.11855692
S    0.05985236   0.26262156  -0.17748389
O    0.55466894   1.66702795  -0.23132880
O    1.09957753  -0.60691640   0.44136610
O   -1.18535799   0.20570774   0.63879548
O   -0.22947903  -0.21533304  -1.55876835
