53
Energy:  -1378.40643772
O   -0.84999884  -1.95319691   3.01649228
H   -0.12434678  -2.36934089   2.55121265
H   -1.10365341  -1.21864724   2.45762915
O   -3.59277432  -1.16817008   0.33891951
H   -2.77988653  -0.74920020   0.62160224
H   -3.65069677  -0.97301803  -0.59638393
O   -3.48148348  -0.55710378  -2.33271764
H   -2.75306259  -1.17257136  -2.41538878
H   -3.06296716   0.29696712  -2.22483422
O    2.24617013   2.27599036  -1.28516471
H    1.75130537   1.96508769  -0.52708803
H    2.20966858   1.55116269  -1.90928356
O    2.01161641   0.00663336  -2.74531430
H    2.54611104  -0.55616926  -2.18513526
H    1.14060315  -0.01807393  -2.34913591
O   -1.24852740  -2.15895845  -2.34780946
H   -0.99239124  -2.81942036  -1.70405782
H   -0.82649672  -1.35422234  -2.04694114
O    1.96417484  -1.53972953   3.04966533
H    1.14548315  -1.34011834   3.50368200
H    1.73659748  -1.51027262   2.12037922
O    3.30459231  -1.33740312  -0.73049179
H    2.48136147  -1.42749671  -0.25048556
H    3.70863087  -0.54893806  -0.36812796
O    4.26470676   1.07717044   0.17533610
H    3.85890076   1.06574388   1.04218256
H    3.66284175   1.58940363  -0.36467086
O   -0.19665133   3.67130951   0.89914933
H    0.22063162   2.81362860   0.97971146
H   -0.15870841   3.86971822  -0.03649278
O    2.83940189   1.00866057   2.50538132
H    2.69304191   0.10915819   2.79813731
H    2.10363411   1.19381728   1.92177647
O   -2.05438737   1.79265880  -1.83376729
H   -2.36042122   2.00556378  -0.95215138
H   -1.36491397   1.14270885  -1.69803469
O   -2.53277313   2.27469668   0.82187583
H   -1.78253753   2.85722528   0.94036143
H   -2.19382995   1.40267891   1.02419827
O   -2.55483612  -3.40994906   1.46769165
H   -2.04745856  -2.95709532   2.14128155
H   -3.02613369  -2.71214167   1.01252652
O   -0.34757481  -3.61171819  -0.16559335
H   -1.13413484  -3.56480405   0.37787168
H    0.16242174  -2.84088216   0.08329854
O   -0.05643294   3.73882239  -1.83825163
H    0.75761727   3.24178550  -1.75757679
H   -0.73572511   3.07204719  -1.93927059
S    0.08094560  -0.04825799   0.29381999
O    0.83549707   1.16681664   0.71136727
O    0.89036369  -1.26285765   0.59330292
O   -1.20731351  -0.11358980   1.03962174
O   -0.19476486   0.01659885  -1.16901197
