53
Energy:  -1377.50378820
O   -0.39782290   1.25792196   3.25943473
H   -0.89090332   1.07272510   2.46018153
H    0.14686685   0.48182366   3.39064580
O   -3.40873397  -1.21519717   0.88100292
H   -2.78384019  -0.49218755   0.93574506
H   -3.34645051  -1.51816432  -0.02484670
O   -2.82536939  -2.20460769  -1.63260296
H   -2.32269116  -2.99701044  -1.44380590
H   -2.16976057  -1.50832076  -1.67252074
O    2.84751580   0.35767002  -1.91070876
H    2.13179252   0.83097705  -1.48650068
H    3.12808856  -0.28623872  -1.26040705
O    0.95652287  -1.15353736  -3.24765564
H    0.18658019  -0.86385172  -2.75826587
H    1.66450079  -0.58897054  -2.93739219
O    1.19014199  -3.04494020  -1.30192310
H    0.88654886  -2.46680865  -0.60204670
H    1.12357293  -2.51535067  -2.09648923
O    1.30279736  -0.87873878   3.11322593
H    2.10080436  -0.38686490   2.91963675
H    0.93275358  -1.08338348   2.25449431
O    3.09113648  -1.39032767   0.19353457
H    3.08622053  -2.22352507  -0.27762334
H    2.16935813  -1.21749369   0.38506768
O    3.38922524   0.63955869   2.21173686
H    2.80062609   1.35814008   1.98060128
H    3.40879146   0.08502661   1.43177327
O   -0.23612113   4.41086671   0.41383003
H    0.33915530   3.86810207   0.95299180
H   -0.09901343   4.09295168  -0.47856191
O    1.43263693   2.57824790   1.72975923
H    0.80036765   2.22641217   2.35640030
H    1.24235199   2.11760584   0.91254911
O   -2.30383328   1.90159577  -2.31437046
H   -2.52938474   2.24258450  -1.44887345
H   -1.89096492   1.05600032  -2.13904250
O   -2.55692616   2.90088710   0.25637527
H   -1.82530976   3.50679876   0.37402027
H   -2.21400280   2.05291998   0.53848728
O   -1.38609632  -2.93528079   1.50184436
H   -0.67252659  -2.35067648   1.24632940
H   -2.17528239  -2.39935374   1.42310816
O   -1.21763168  -4.30283930  -0.83713612
H   -0.36896308  -3.96709488  -1.12570006
H   -1.33163765  -3.94288280   0.04244662
O    0.09157611   3.19485227  -2.00198350
H    0.45470015   2.48798232  -1.46840346
H   -0.76001816   2.86549135  -2.28928199
S   -0.26495436   0.06386591  -0.13101677
O    0.73658398   1.13809969  -0.38209994
O    0.41238315  -1.11327170   0.48189507
O   -1.31529049   0.57095342   0.79621368
O   -0.89349410  -0.34031775  -1.42007587
