53
Energy:  -1391.90294164
O   -0.03772589  -1.10214056   3.22933440
H   -0.40442049  -0.61597091   2.49081832
H    0.60758827  -1.68830277   2.83409353
O   -3.51411204  -0.33240364   0.84229664
H   -2.59973104  -0.09292272   0.99325396
H   -3.50924643  -0.77532164  -0.00625025
O   -2.91069282  -1.57936631  -1.51192673
H   -2.48616921  -2.30850231  -1.05985125
H   -2.21211326  -0.93794845  -1.64154762
O    2.42125984   2.11694234  -2.76177993
H    1.81389424   2.58050033  -2.18519267
H    2.86483347   1.49082013  -2.18955161
O    0.77805767   0.06790044  -3.62437746
H    0.12050775   0.07868168  -2.92886059
H    1.33456219   0.82462769  -3.44026217
O    2.09249496  -1.93105458  -2.26824735
H    1.53386343  -1.97203479  -1.49204939
H    1.63778220  -1.33144131  -2.85979794
O    1.90539248  -2.53599675   1.90613759
H    2.71424964  -2.03245722   1.81432324
H    1.39166548  -2.30826912   1.13124628
O    3.46264402   0.11158376  -1.08008914
H    3.17236188  -0.67005738  -1.55020110
H    2.67778878   0.42782293  -0.63262195
O    3.98964210  -0.75574342   1.52768009
H    3.38756376  -0.16081000   1.97465633
H    3.91502701  -0.52221358   0.60240811
O   -1.16177094   2.86324150   1.35750960
H   -0.54193513   3.14055344   0.68287377
H   -1.05514842   1.91320765   1.40545916
O    2.01542840   0.79929804   2.58647671
H    1.33143557   0.24673307   2.96470629
H    1.72487378   0.96019162   1.68874450
O   -1.91366336   2.50051323  -1.94434672
H   -2.59761888   2.53285281  -1.27547390
H   -1.55289549   1.61653000  -1.87614083
O   -3.60659122   2.39918925   0.24205576
H   -2.80744745   2.64974764   0.70554424
H   -3.69626003   1.46081384   0.40831739
O   -2.48289649  -2.38137820   2.47702235
H   -1.67699949  -1.99315214   2.81767232
H   -2.90678984  -1.67082277   1.99571448
O   -1.54735525  -3.36851122   0.07013797
H   -0.76210628  -2.83140905  -0.03539479
H   -1.87546950  -3.14534609   0.94121214
O    0.53601899   3.24003161  -0.92716065
H    0.81963579   2.39742117  -0.57247628
H   -0.29066157   3.04805588  -1.36985289
S   -0.02549758  -0.10939453  -0.11780150
O    1.14604596   0.80744020  -0.03413660
O    0.44705163  -1.52231677  -0.09663530
O   -0.92753095   0.13008274   1.04370031
O   -0.76755697   0.14721570  -1.38413443
