53
Energy:  -1383.02761258
O   -0.71460326  -0.73464144   3.08339050
H   -1.03194343  -0.41609770   2.23837159
H    0.03455718  -1.28895946   2.86493683
O   -3.75344518  -1.06046709   0.31701284
H   -2.98214336  -0.51994394   0.48777606
H   -3.56269962  -1.49502379  -0.51425634
O   -2.61252117  -2.21355696  -1.90824813
H   -2.17532672  -2.81130600  -1.30179206
H   -2.00185117  -1.48315024  -2.00734413
O    2.58654874   1.82300136  -2.86347201
H    1.88604602   2.34933498  -2.47811412
H    2.95088140   1.33215348  -2.12688398
O    1.14070388  -0.39491011  -3.65472808
H    0.38096814  -0.33433056  -3.07562224
H    1.63530986   0.40713102  -3.48642240
O    2.35362038  -2.04227986  -1.81352175
H    1.66690962  -2.04444198  -1.14669681
H    1.96313808  -1.58563532  -2.55866011
O    1.52505632  -2.09253177   2.30134986
H    2.26685306  -1.48801173   2.27843755
H    1.13856410  -2.03137993   1.42778471
O    3.33390286   0.24537402  -0.68703343
H    3.19547991  -0.61703381  -1.07859909
H    2.45668319   0.54314759  -0.44610109
O    3.39340358  -0.07851210   2.08785544
H    2.66859445   0.50585288   2.31011913
H    3.48174190  -0.00073702   1.13791901
O   -0.58113810   3.59286556   2.68627652
H    0.05341207   2.87692867   2.71809323
H   -1.12309173   3.39938778   1.92136837
O    1.07746023   1.36902564   2.51008142
H    0.45837838   0.72155659   2.84735483
H    1.00225451   1.29995416   1.55834349
O   -1.97730434   2.15403386  -2.44171440
H   -2.27320244   2.39365112  -1.56350046
H   -1.63021663   1.26730285  -2.34439997
O   -1.77882267   2.81934364   0.30600902
H   -0.94872738   3.00657766  -0.13230260
H   -1.73369646   1.88682797   0.51721982
O   -2.68361657  -2.61425512   2.30135005
H   -2.03002226  -2.02482838   2.67767761
H   -3.14705874  -2.07887507   1.65728374
O   -1.35498481  -3.63654849   0.09489830
H   -0.65950234  -2.98212651   0.02956958
H   -1.82093562  -3.41198160   0.90031211
O    0.44223992   3.06742617  -1.55258435
H    0.66383436   2.30087646  -1.02387905
H   -0.32372351   2.79658236  -2.05872219
S   -0.24195359  -0.17773429  -0.31922272
O    0.82074476   0.85397496  -0.15690131
O    0.32480524  -1.52461810  -0.02803821
O   -1.35836466   0.10623702   0.62580990
O   -0.75499972  -0.14653104  -1.71776126
