53
Energy:  -1375.96567960
O   -0.88461110   0.26073403   3.24442971
H   -1.10527819   0.31521892   2.31460754
H   -0.96490857  -0.66932236   3.45604087
O   -2.84873052  -1.91404733   1.12027507
H   -2.33354247  -1.11480442   1.01062156
H   -2.45826035  -2.53722157   0.50756082
O   -3.13600598  -1.15714882  -1.84876480
H   -3.33598947  -1.04357448  -0.91960426
H   -2.34996744  -0.62982801  -1.99127101
O    0.87447247   1.65278579  -3.50143972
H    1.15313022   2.32159522  -2.87591942
H    0.24731149   1.11671746  -3.01612363
O    0.85637889  -1.10036853  -3.84660295
H    0.16350973  -1.00982883  -3.19241129
H    1.17610340  -0.20844732  -3.98256124
O    2.26323697  -2.40599575  -1.86078826
H    1.56791371  -2.25156050  -1.22132976
H    1.92916637  -2.02842693  -2.67446538
O    1.15934676  -2.55251481   1.98874492
H    1.88323561  -1.95430288   2.17410748
H    0.82764885  -2.27094748   1.13614409
O    3.42492463  -0.35552445  -0.43640192
H    3.17718435  -1.12472136  -0.94942504
H    2.61885210   0.15589092  -0.36616480
O    3.14504774  -0.65709264   2.28162070
H    2.59079701   0.10715381   2.43962494
H    3.34331872  -0.62042367   1.34589860
O    0.27343445   3.81042272   1.42764052
H    0.68501524   3.06837562   1.87058431
H    0.55003110   3.72859582   0.51493547
O    1.39924725   1.47841602   2.39227188
H    1.31045390   1.25482434   1.46579773
H    0.64268574   1.06856499   2.81163886
O   -1.73134406   2.76697369  -1.80684288
H   -2.02282914   2.80272200  -0.89580482
H   -1.50254468   1.84857260  -1.94974895
O   -2.20209639   2.71983385   0.86641467
H   -1.40133697   3.15086365   1.16512776
H   -1.97657612   1.79013219   0.83436348
O   -1.23033617  -2.45789814   3.31834559
H   -0.38312679  -2.56657173   2.88630605
H   -1.85215776  -2.33812134   2.60055504
O   -1.72236164  -3.32768813  -0.92386833
H   -2.24148138  -2.71943924  -1.44996701
H   -0.91985236  -2.84634123  -0.72258278
O    0.89168620   3.25307275  -1.20028784
H    1.05729633   2.38504641  -0.83240822
H   -0.02297096   3.22423590  -1.48100580
S   -0.19757885  -0.09615398  -0.42665784
O    0.97738266   0.77988011  -0.15808810
O    0.21335012  -1.52446239  -0.32095792
O   -1.26730184   0.18802166   0.57085755
O   -0.71374636   0.17194469  -1.79844289
