53
Energy:  -1380.99612727
O   -0.42571568  -0.35930667   3.51009829
H   -0.88644955  -0.06475563   2.72448017
H    0.12856593  -1.07872444   3.20770480
O   -2.32062007  -3.09454152   0.52868785
H   -1.46684637  -2.69111950   0.37199391
H   -2.70936370  -2.56951293   1.22829861
O   -2.67566745  -2.05627327  -2.02425197
H   -2.66959349  -2.47037950  -1.16128558
H   -2.21582948  -1.22667888  -1.89558946
O    2.39903055   1.71763982  -2.71364509
H    1.84284623   2.29677509  -2.19259501
H    2.70974268   1.05976507  -2.09163976
O    0.47398796  -0.09324475  -3.48466870
H   -0.20500716   0.03950426  -2.82317405
H    1.11541694   0.59590686  -3.31183708
O    1.34693692  -2.23961474  -2.04295906
H    0.81214277  -2.13437402  -1.25609728
H    1.04081321  -1.55246671  -2.63486083
O    1.21041173  -2.21510229   2.35967039
H    2.02608845  -1.73358902   2.22165478
H    0.73443457  -2.12242340   1.53438971
O    2.94380743  -0.28970350  -0.85567850
H    2.60195544  -1.07455211  -1.28390943
H    2.17276372   0.13162901  -0.47593864
O    3.34285019  -0.53469058   1.90512193
H    2.80011541   0.20239902   2.18506786
H    3.31619059  -0.50277266   0.94882577
O    0.32659085   3.80879476   1.64352808
H    0.73444603   3.05257384   2.06544742
H    0.51069454   3.69185265   0.71150758
O    1.47011586   1.42150854   2.55824682
H    0.84870906   0.91045330   3.07681020
H    1.23979668   1.22882356   1.64936981
O   -1.95698672   2.76005093  -1.52169315
H   -2.19273719   2.87232750  -0.60079819
H   -1.78455367   1.82292304  -1.61274270
O   -2.23638620   2.87048788   1.21758056
H   -1.39381546   3.25787352   1.45472768
H   -2.07953132   1.92636752   1.23386407
O   -3.07631124  -1.33127315   2.53311912
H   -2.42633095  -1.41508483   3.23078170
H   -2.69680940  -0.69530642   1.92668981
O   -0.75103360  -3.71395973  -3.14786402
H   -1.46664780  -3.16425625  -2.82856126
H    0.03909097  -3.31472767  -2.78379153
O    0.70688640   3.13658532  -1.01744840
H    0.78422752   2.28146202  -0.59434754
H   -0.19430369   3.16468857  -1.33884921
S   -0.51277125  -0.08930285  -0.00720337
O    0.71340690   0.74895207   0.11076194
O   -0.14418067  -1.52806544   0.11197380
O   -1.46686840   0.27061463   1.07919345
O   -1.15344285   0.15128733  -1.33074267
