53
Energy:  -1377.98002910
O   -0.70096156  -0.84415852   3.52118343
H   -0.94891309  -0.41645938   2.70153392
H    0.16776345  -1.20739265   3.34910883
O   -3.35975259  -1.09001303   0.57000034
H   -2.67111521  -0.46928554   0.80813429
H   -3.07719563  -1.45123091  -0.27018717
O   -2.01400959  -2.12807058  -1.64057705
H   -1.59718922  -2.70352048  -0.99921129
H   -1.52260443  -1.30866372  -1.58291237
O    2.09075044   1.89327153  -2.10165626
H    1.79887659   1.71279927  -1.20808407
H    1.88669463   1.09378654  -2.58685397
O    1.30271252  -0.57992899  -3.06573462
H    1.91553883  -1.03123135  -2.48521594
H    0.57696395  -0.32413419  -2.49644569
O   -0.50913754  -2.50622207  -3.96324729
H   -1.10559544  -2.46278889  -3.21586292
H    0.17625552  -1.86950241  -3.76062384
O    2.05266507  -1.23286933   2.78987787
H    1.90693709  -0.30866171   2.99195580
H    1.59994746  -1.37089022   1.95787496
O    2.82883519  -1.68147181  -1.04856134
H    2.02025648  -1.75835304  -0.54208173
H    3.34644653  -1.02902812  -0.57672707
O    3.60967365   0.17411313   0.86865694
H    3.32243221  -0.42314203   1.55931639
H    2.81998996   0.65733990   0.62550388
O    0.40004021   3.80397770   0.31047373
H    0.71126792   2.90204072   0.38714733
H    0.33495773   3.95606445  -0.63232304
O    1.26717695   1.33408244   3.15324726
H    0.38569454   1.02174888   3.35737554
H    1.25131626   1.49807825   2.21033388
O   -1.98896519   2.25449067  -1.81738947
H   -2.19440791   2.50617996  -0.91701308
H   -1.51448272   1.42745472  -1.73306994
O   -2.10861199   2.86344361   0.87329271
H   -1.26840183   3.30949698   0.76692012
H   -1.87538132   1.95802525   1.07836075
O   -2.46198840  -2.74410950   2.53512498
H   -1.86715529  -2.14931700   2.99188234
H   -2.89776104  -2.19439405   1.88385930
O   -0.83800130  -3.49232177   0.43904937
H   -0.21155518  -2.76957106   0.47684503
H   -1.40687603  -3.35671070   1.19682442
O    0.16722148   3.81321113  -2.41245170
H    0.87764715   3.17171972  -2.41645062
H   -0.62760233   3.29041361  -2.30676488
S    0.02095027   0.07906931   0.20652973
O    1.04432099   1.15249437   0.34995564
O    0.63853665  -1.24071517   0.51774666
O   -1.10371789   0.33587988   1.14954081
O   -0.49533871   0.06861815  -1.19112419
