53
Energy:  -1378.01432248
O   -1.00601254  -0.57201413   3.22195822
H   -1.28255672  -0.32292702   2.34007910
H   -0.28969343  -1.19150198   3.08284100
O   -3.40098753  -1.76660296   0.47508110
H   -2.78733394  -1.04110794   0.59048513
H   -2.85685419  -2.49643374   0.17928082
O   -2.92317468  -1.42297074  -2.28456026
H   -3.31911673  -1.36457565  -1.41504790
H   -2.14990385  -0.86104098  -2.23437035
O    2.78605811   1.80346670  -2.63491980
H    2.16872584   2.35484549  -2.15417648
H    3.08744655   1.16271754  -1.99084110
O    1.11012858  -0.12967806  -3.67625105
H    0.37833765  -0.06357051  -3.06278249
H    1.69435999   0.58782507  -3.43110871
O    2.06870496  -2.14355315  -2.06772935
H    1.40291237  -2.14474448  -1.38001527
H    1.72446798  -1.54871862  -2.73399103
O    1.42350534  -1.64227656   2.33528319
H    1.55588412  -0.69586473   2.39016818
H    1.05035945  -1.78233627   1.46500894
O    3.29373095  -0.12492769  -0.73043377
H    3.00820704  -0.89539102  -1.22144723
H    2.49004055   0.22740689  -0.34810677
O    4.07666062  -1.56927096   1.50852870
H    3.20219373  -1.76246097   1.84648892
H    3.91976651  -1.05220234   0.71842989
O    0.09887880   3.65367797   1.58956380
H    0.45306318   2.90025287   2.06193642
H    0.45783712   3.57327207   0.70586948
O    1.02606993   1.23598167   2.67519898
H    0.23487531   0.79091977   2.97878230
H    1.02477177   1.10742823   1.72667161
O   -1.56079084   2.62413449  -1.95142596
H   -1.95299984   2.69216879  -1.08092306
H   -1.31467605   1.70266766  -2.03240900
O   -2.29710577   2.61289895   0.70119721
H   -1.52897226   3.03359371   1.08748556
H   -2.10325169   1.67637890   0.74097969
O   -3.39718615  -1.99702782   3.24234924
H   -2.58317887  -1.51349042   3.38311702
H   -3.52540698  -1.98014323   2.29392624
O   -1.68962520  -3.44664789  -0.85451568
H   -2.04577295  -2.92146334  -1.57115494
H   -0.92809468  -2.95279981  -0.55051371
O    0.94975215   3.11527040  -1.00397230
H    1.00754486   2.25329447  -0.59179595
H    0.10567624   3.10934371  -1.45533975
S   -0.26221732  -0.21153560  -0.26636305
O    0.85886027   0.70602655   0.08201138
O    0.19044890  -1.62420861  -0.12654798
O   -1.40969766   0.03546546   0.65144922
O   -0.68848079   0.03657420  -1.67236483
