53
Energy:  -1383.40918396
O   -0.38163157  -0.26429955   3.33064396
H   -0.90731565  -0.12363277   2.54317907
H    0.15416649  -1.03109049   3.12770568
O   -3.69495390  -1.32177523   0.37797320
H   -2.95078886  -0.81265086   0.69928711
H   -3.79865341  -1.04652841  -0.53291507
O   -3.58884486  -0.23254729  -2.18483695
H   -3.70721881   0.71500982  -2.11884462
H   -2.64821410  -0.36563006  -2.06764223
O    2.44013321   1.58515490  -2.88904114
H    1.82160022   2.16101013  -2.43955304
H    2.80141492   1.03302765  -2.19559838
O    0.73399035  -0.44427749  -3.65833966
H    0.03692883  -0.34305222  -3.01019575
H    1.31921393   0.29623744  -3.49901970
O    1.93284952  -2.26391771  -1.97296404
H    1.29802661  -2.23074341  -1.25733062
H    1.53259047  -1.74810008  -2.67293312
O    1.30239086  -2.22700726   2.29826237
H    2.09703561  -1.69541688   2.25153728
H    0.88424823  -2.10904748   1.44534146
O    3.16420163  -0.12221442  -0.81017215
H    2.92255846  -0.95314674  -1.21930771
H    2.33597143   0.24028081  -0.49574600
O    3.33178331  -0.37841328   1.97688215
H    2.74411435   0.34539787   2.19361809
H    3.39199278  -0.36089286   1.02173834
O    0.10777057   3.80066189   1.27929180
H    0.55441597   3.10161476   1.75686153
H    0.33469785   3.64763690   0.36205726
O    1.38908238   1.57042817   2.36901342
H    0.77790638   1.04208450   2.88238336
H    1.22303924   1.31545650   1.46146123
O   -2.06930861   2.38538208  -1.86849457
H   -2.26356696   2.52706699  -0.94198449
H   -1.69845317   1.50365143  -1.90383802
O   -2.34036020   2.61419755   0.83614263
H   -1.54533971   3.08392906   1.08818742
H   -2.11407355   1.68935342   0.93457810
O   -0.36989357  -4.48286139   2.51689660
H    0.28735255  -3.78758378   2.54602435
H   -0.97539829  -4.21196194   1.82681734
O   -1.86798579  -3.43634393   0.42381558
H   -2.59997861  -2.82010804   0.44973243
H   -1.10980775  -2.89887915   0.19462239
O    0.58291884   3.01780536  -1.34736151
H    0.71564306   2.19874983  -0.87011508
H   -0.31201837   2.95842726  -1.68171682
S   -0.37027294  -0.22813238  -0.20894746
O    0.77217660   0.71607975  -0.05606671
O    0.11433447  -1.62637099  -0.03521073
O   -1.40339296   0.07118428   0.82215515
O   -0.96420987  -0.07342254  -1.56666753
