53
Energy:  -1383.74835322
O   -0.36461343  -1.15529349   3.03279482
H   -0.76135382  -0.70611997   2.28642221
H    0.31185988  -1.71139730   2.64631809
O   -3.68666202  -0.99812288   0.58208681
H   -2.87298579  -0.52259524   0.74952728
H   -3.63846036  -1.23781138  -0.34336328
O   -2.95344894  -1.66192560  -1.98634919
H   -2.48345634  -2.38134549  -1.56471685
H   -2.32342348  -0.94152363  -2.00425947
O    0.34638582   1.85678264  -3.33164678
H    0.52183169   2.53941989  -2.68399179
H   -0.21368408   1.22989340  -2.87386579
O    2.56076917   0.26996406  -3.50753980
H    1.77575881   0.81767758  -3.50683885
H    2.91864717   0.36235409  -2.62457928
O    2.21179972  -2.17196048  -2.16973779
H    1.44258131  -2.05024659  -1.61321230
H    2.14119974  -1.48322578  -2.83071585
O    1.55705429  -2.49746374   1.67279674
H    2.31193416  -1.91017490   1.71126806
H    1.11608298  -2.26821299   0.85473792
O    3.30050058  -0.05112735  -0.85596527
H    3.05707389  -0.91601099  -1.18604342
H    2.46935368   0.35378040  -0.60802094
O    3.50906358  -0.56375832   1.82445198
H    2.85945747   0.05888426   2.15088722
H    3.56218802  -0.38504653   0.88558471
O    0.33189743   3.59227663   1.83741964
H    0.74032169   2.77931156   2.13492473
H    0.46195503   3.59314207   0.88909684
O    1.38845704   1.07263234   2.45500180
H    0.77259006   0.43998246   2.82472310
H    1.24209166   1.02607542   1.51020475
O   -2.17083412   2.77035635  -1.17556693
H   -2.32448863   2.68986966  -0.23421469
H   -1.92403411   1.88864886  -1.45469682
O   -2.15179260   2.46010069   1.55015403
H   -1.33309116   2.91767791   1.74142055
H   -1.88790212   1.55492785   1.38506076
O   -2.45263865  -2.89084198   2.11644754
H   -1.74664548  -2.37974280   2.51215338
H   -2.97479719  -2.24772998   1.63687559
O   -1.57213217  -3.51035140  -0.45474509
H   -0.85244520  -2.88221336  -0.51577874
H   -1.87925589  -3.43637845   0.44882277
O    0.47660458   3.35634284  -0.93933834
H    0.73778280   2.46952002  -0.69121926
H   -0.47084545   3.30144526  -1.06406422
S   -0.28576504  -0.08428806  -0.35505190
O    0.87277244   0.83371205  -0.16752406
O    0.20530871  -1.48609090  -0.47293058
O   -1.20046551   0.02471218   0.81607663
O   -1.02067583   0.29051441  -1.59582958
