53
Energy:  -1388.99408915
O   -0.50143132  -1.11520687   3.22986887
H   -0.80280318  -0.59676664   2.48379475
H    0.21703762  -1.64274786   2.88096381
O   -3.64329182  -0.62500012   0.40763423
H   -2.81586613  -0.25444657   0.71469878
H   -3.41930534  -1.06597230  -0.41188114
O   -2.55295074  -1.65553193  -1.85749531
H   -2.11106975  -2.35237024  -1.37232585
H   -1.91374863  -0.94381916  -1.89092343
O    2.63777668   1.86681296  -2.86240269
H    1.84428455   2.32730521  -2.58936609
H    2.95100143   1.43610219  -2.06703464
O    0.90689977  -0.13393530  -3.56181144
H    0.24939126   0.01608665  -2.88254137
H    1.53200329   0.58278114  -3.45320673
O    2.30307364  -1.80289506  -1.90914101
H    1.65281948  -1.81115326  -1.20676419
H    1.87516412  -1.33598681  -2.62686099
O    1.63902624  -2.37970386   2.06538750
H    2.43788419  -1.85314330   2.09352643
H    1.21419355  -2.12762310   1.24550682
O    3.38466261   0.35830848  -0.63624509
H    3.14188374  -0.44957579  -1.08858708
H    2.56484332   0.67815572  -0.25964727
O    3.69308606  -0.53475740   2.00459751
H    3.02751518   0.01319539   2.42052417
H    3.69059463  -0.26083058   1.08743354
O    0.31531365   3.63808929   0.41673018
H   -0.59175482   3.49328264   0.68596923
H    0.71230173   2.76723899   0.43260718
O    1.55235419   0.85727634   2.97842545
H    0.84855292   0.26323870   3.23922212
H    1.36567734   1.06300197   2.06242296
O   -3.22478326   1.61184678  -1.23485899
H   -3.59394802   0.92153926  -0.68401895
H   -2.34277617   1.30513324  -1.44514960
O   -2.21862334   2.75028185   1.05683687
H   -2.65424244   2.60202539   0.21749911
H   -1.84584689   1.89932448   1.28736044
O   -2.66866532  -2.58683957   2.14822638
H   -1.95955601  -2.13034857   2.60100867
H   -3.09577712  -1.90815486   1.62554633
O   -1.33590724  -3.39468253  -0.13563430
H   -0.62301915  -2.75595409  -0.12867653
H   -1.79743780  -3.24820570   0.69005687
O    0.19013171   2.91096564  -2.20852439
H    0.24670317   3.32022773  -1.34508009
H   -0.17996160   2.04451366  -2.03963462
S   -0.12672130   0.08284718  -0.02804251
O    0.99019805   1.01377933   0.29746710
O    0.38545313  -1.31603297  -0.05823627
O   -1.18959116   0.20031945   1.00955469
O   -0.69294523   0.43332293  -1.36095558
