53
Energy:  -1389.59534147
O   -0.32408292  -0.50748124   3.35055046
H   -0.83643629  -0.28908733   2.57207119
H    0.28587527  -1.18321028   3.05462288
O   -3.69329649  -1.33687405   0.90353848
H   -2.94916138  -0.73656684   0.94964737
H   -3.33905054  -2.18029783   1.18527946
O   -3.21728938  -1.47737846  -1.80643095
H   -3.52052232  -1.39150608  -0.90260156
H   -2.46003161  -0.89452780  -1.86190717
O    2.47111487   1.85190865  -2.76692478
H    1.85754527   2.39457071  -2.27166516
H    2.84854206   1.26080355  -2.11548382
O    0.76224055  -0.14605632  -3.61538204
H    0.05668039  -0.08569475  -2.97135317
H    1.33111572   0.59817999  -3.41859486
O    2.02748590  -2.04143335  -2.06822441
H    1.39874924  -2.07069296  -1.34706845
H    1.60648848  -1.49472335  -2.73162564
O    1.43103920  -2.25225363   2.18439227
H    2.20970750  -1.69820961   2.13014507
H    1.00322292  -2.14883078   1.33438710
O    3.21891007   0.04793593  -0.79461456
H    3.00321962  -0.76056531  -1.25941046
H    2.37947575   0.36373919  -0.46017445
O    3.43239271  -0.36919237   1.95366306
H    2.82086281   0.31438259   2.22750298
H    3.48009208  -0.28121819   1.00170867
O    0.16454580   3.75449357   1.57260750
H    0.60276985   3.01992578   2.00226047
H    0.38885992   3.65959228   0.64691383
O    1.40628218   1.44105939   2.50355548
H    0.80493422   0.87487151   2.98733619
H    1.23354891   1.24366761   1.58299503
O   -1.92908053   2.59611948  -1.68414372
H   -2.20126482   2.66206452  -0.76883022
H   -1.67293549   1.68026987  -1.79296038
O   -2.27972715   2.58994418   1.05077340
H   -1.47912745   3.03852229   1.32289405
H   -2.05448686   1.65998978   1.07691667
O   -2.21139172  -3.54610846   1.56957685
H   -1.52522826  -2.97664855   1.91760985
H   -1.99272105  -3.64678285   0.64314301
O   -1.52708648  -3.50026696  -1.05099909
H   -2.16652998  -2.90582968  -1.44341235
H   -0.81547154  -2.92963893  -0.76079282
O    0.67351076   3.14170278  -1.08150626
H    0.79547276   2.28684568  -0.66849723
H   -0.21902984   3.11644410  -1.42641947
S   -0.33889935  -0.19860990  -0.17494058
O    0.80054556   0.74118200   0.02141748
O    0.15674585  -1.60193560  -0.10343655
O   -1.35566118   0.02394514   0.89125108
O   -0.95722763   0.04236885  -1.50899432
