53
Energy:  -1385.22001422
O   -0.98647642  -1.03098445  -3.00344884
H   -0.70566946  -1.06411896  -2.08896461
H   -0.98958200  -0.09858574  -3.21990868
O    1.57494507  -2.07041281  -3.35331729
H    0.67525579  -1.74385112  -3.36550352
H    2.08675288  -1.35007041  -2.98536154
O    1.34367223   3.79046640  -0.16001100
H    0.58275462   3.88505592   0.41295416
H    1.20482186   2.95579878  -0.60754021
O    3.16079263  -1.40420525   0.32622999
H    2.57529623  -0.78045574   0.75560438
H    2.57921153  -2.08379698  -0.01457839
O   -2.19524289  -0.24812661   2.65162304
H   -1.91705753   0.37197390   1.97759032
H   -1.38477553  -0.66651077   2.94201796
O    0.73237224   2.48565958   3.60919431
H    1.51040857   2.52428884   3.05295776
H    0.31876141   1.65185938   3.38573257
O    1.22989229  -3.03066314  -0.77908746
H    0.67049279  -2.27161670  -0.61430716
H    1.45546499  -2.96560830  -1.70705118
O    2.71187436   2.39647375   1.76378144
H    2.29048394   1.55503472   1.58873196
H    2.38438588   2.97649280   1.07635068
O   -3.04889323   1.52101935  -1.20440683
H   -3.29082026   0.60904367  -1.36566289
H   -2.41375701   1.47802270  -0.48957460
O    0.24010582  -1.43552569   3.09543177
H    0.68057369  -0.84563181   2.48367601
H    0.14629926  -2.25630276   2.61194735
O    2.90370537  -0.05346149  -2.06009241
H    3.16468427  -0.47994983  -1.24386354
H    2.19023525   0.53243301  -1.80726863
O   -0.30322498  -3.66109961   1.51386951
H   -1.10341796  -3.21967178   1.22915121
H    0.28295872  -3.60566101   0.75918608
O   -1.00370863   1.69682749  -3.04252762
H   -0.27254949   1.65951179  -2.42588696
H   -1.78099920   1.77133158  -2.48890288
O   -3.45624493  -1.14749485  -1.75717518
H   -3.20202088  -1.51202596  -0.90940219
H   -2.65413005  -1.17144608  -2.27897007
O   -2.37328150  -2.07215459   0.62099903
H   -1.61822245  -1.68732896   0.17599689
H   -2.52740783  -1.49861114   1.37168194
O   -0.74931583   3.66562781   1.62888874
H   -0.99813770   2.83597387   1.22146531
H   -0.26250050   3.41150223   2.41289312
S    0.14908654   0.45290795   0.08726166
O    0.75748801   1.26021823  -1.00736053
O   -0.26504955  -0.87518837  -0.44635943
O    1.14730831   0.26112038   1.17669769
O   -1.04340061   1.16548154   0.62606894
