53
Energy:  -1379.83099778
O   -0.53777421  -1.49751050   3.07376010
H   -0.77197683  -0.91634161   2.35014163
H    0.28215562  -1.90672122   2.79718550
O   -3.52452785  -0.73437612   0.63405061
H   -2.67681868  -0.33735106   0.83403091
H   -3.43312220  -1.05644734  -0.26269182
O   -2.77038761  -1.69458510  -1.80853806
H   -2.31478107  -2.43387566  -1.40591665
H   -2.11283898  -1.00010174  -1.84796522
O    2.17137646   1.86453655  -3.62752572
H    1.60731820   2.39529245  -3.06505946
H    2.65465877   1.30301569  -3.02141980
O    0.38052122  -0.20299097  -3.88612712
H   -0.12564669  -0.07529038  -3.08380645
H    0.98823698   0.53625855  -3.90670760
O    1.86562355  -2.04534185  -2.47473406
H    1.40013666  -2.02276419  -1.63864551
H    1.32353625  -1.52239313  -3.06540981
O    1.83978032  -2.29175630   2.01426973
H    2.25848837  -1.44569189   2.17266932
H    1.40428641  -2.18931791   1.16805270
O    3.20256701   0.21472872  -1.72672223
H    2.88962312  -0.64683994  -2.00239852
H    2.58358936   0.48977016  -1.05037119
O    2.54311235   0.35034618   2.26648116
H    1.87806136   0.61830694   2.90062314
H    2.14791430   0.53075157   1.41354256
O    1.11414290   3.38002804   1.02124610
H    1.29543352   2.45263915   0.86855231
H    0.91009418   3.73059309   0.15423969
O    0.47280284   0.86981841   4.01441887
H    0.10195722   0.00823441   3.82368772
H   -0.07701438   1.48149424   3.52473983
O   -2.05622462   2.50714771  -1.59763734
H   -2.38384690   2.53850399  -0.69879794
H   -1.68916429   1.62783042  -1.68873981
O   -1.06483730   2.40497483   2.34151293
H   -0.33837150   2.86453594   1.92046320
H   -1.13515812   1.57853149   1.86372820
O   -2.65846848  -2.91133260   2.03372803
H   -1.91581285  -2.52032850   2.49395653
H   -3.07595330  -2.17664406   1.58409370
O   -1.36354207  -3.52463280  -0.31641507
H   -0.63526306  -2.90400635  -0.29064032
H   -1.80249092  -3.41471037   0.52707341
O    0.63110630   3.05987241  -1.69154430
H    0.89022464   2.29199419  -1.18217943
H   -0.31807603   2.97754691  -1.78377912
S   -0.04254475  -0.10564937  -0.18500166
O    1.10789649   0.83358152  -0.06487558
O    0.45920491  -1.50862240  -0.18126588
O   -0.96863558   0.09368737   0.96509428
O   -0.76864485   0.15875601  -1.45895945
