53
Energy:  -1379.16095694
O   -0.08647264  -1.12638275   3.09850295
H   -0.56409180  -0.62936164   2.43436306
H    0.49191908  -1.70174583   2.59785118
O   -2.96140267  -1.80943080   0.48247679
H   -2.42300626  -1.06679270   0.75606372
H   -2.37491689  -2.34838042  -0.04837119
O   -3.30640864  -0.45053959  -1.95425545
H   -3.43738103  -0.82670717  -1.08386702
H   -2.55130749   0.12912377  -1.85403328
O    0.89662098   0.92814899  -3.35687194
H    0.16697889   0.99749160  -2.74120493
H    1.67735115   0.91488778  -2.80323271
O    0.35784863  -1.59679878  -4.29705198
H   -0.33331187  -1.90653222  -3.71173650
H    0.48495297  -0.67970391  -4.05412539
O    2.08930750  -2.05152701  -2.22428414
H    1.41759293  -1.87327266  -1.56606170
H    1.62834475  -1.98835504  -3.06079744
O    1.57833093  -2.45025703   1.39338093
H    2.38335316  -1.93703953   1.32425158
H    1.04562824  -2.16211312   0.65214360
O    3.07049395   0.34745452  -1.39602116
H    2.80769803  -0.52085749  -1.70131515
H    2.34404263   0.63798503  -0.84457547
O    3.65627307  -0.62967591   1.21693771
H    3.11572860  -0.04952117   1.75309440
H    3.56660713  -0.28726955   0.32758415
O    0.47793007   3.33123508   2.74843992
H    0.94559928   2.50253929   2.85226980
H    0.60157199   3.56288334   1.82795983
O    1.78064449   0.87844681   2.63929080
H    1.17980295   0.21856293   2.98537541
H    1.51810120   0.98616880   1.72512515
O   -1.90398778   3.27617144  -0.62091493
H   -2.08509844   3.05381849   0.29231557
H   -1.65323911   2.44546063  -1.02498980
O   -2.04067671   2.47250961   2.01445845
H   -1.21885687   2.80881727   2.37186739
H   -1.82739959   1.58976625   1.71195408
O   -2.38776647  -2.71592989   3.06613369
H   -1.58682092  -2.20898150   3.19925542
H   -2.69660037  -2.45341930   2.19898799
O   -1.46591859  -2.41706325  -2.36870206
H   -2.15392750  -1.75189862  -2.38947704
H   -0.82856466  -2.08345029  -1.73726384
O    0.72038710   3.66321340   0.05731981
H    0.95239841   2.73536501   0.01859032
H   -0.18231860   3.69827603  -0.25910533
S   -0.25843282   0.16605121  -0.20758403
O    0.96113126   0.95835316   0.11648551
O    0.13470954  -1.22436454  -0.57129152
O   -1.15919167   0.13324597   0.97886333
O   -0.97038042   0.79697023  -1.35439344
