53
Energy:  -1380.74554323
O   -0.30134932  -1.00290607   3.03621403
H   -0.77480754  -0.63633700   2.28942338
H    0.31807457  -1.62073533   2.64784191
O   -3.30556886  -1.85283111   0.76169580
H   -2.70545468  -1.11078814   0.83563521
H   -2.80290740  -2.52274262   0.29825015
O   -3.31140462  -1.15737963  -1.97133651
H   -3.54033196  -1.22201914  -1.04416562
H   -2.54090124  -0.58972256  -1.98927645
O    2.04235095   1.75546307  -3.41995884
H    1.23542735   2.15461485  -3.09471431
H    2.43456193   1.34491521  -2.64934036
O    0.41930472  -0.38696389  -3.95097389
H   -0.18562076  -0.24833954  -3.22222132
H    1.00614971   0.36871559  -3.92280773
O    1.98664429  -1.94357666  -2.34459811
H    1.39636983  -1.96219591  -1.59129788
H    1.47984804  -1.51795111  -3.03614153
O    1.63530695  -2.43734127   1.71588800
H    2.42576301  -1.90467426   1.62826989
H    1.12500855  -2.24055112   0.93033022
O    3.05984445   0.30659793  -1.24586821
H    2.81865594  -0.52382406  -1.65630612
H    2.26487087   0.59133204  -0.79511846
O    3.62823082  -0.54148894   1.37489161
H    3.00966614   0.02383898   1.83750799
H    3.53785845  -0.29373646   0.45473761
O    0.27536042   3.30959337   2.76724536
H    0.77284722   2.49335060   2.81710983
H    0.27883878   3.53633313   1.83729438
O    1.57482615   0.92470816   2.48339004
H    0.97077618   0.27798933   2.84823281
H    1.33348439   0.98384165   1.55900418
O   -0.11415704   3.41691926   0.04859581
H   -0.98179451   3.20539457   0.39311631
H    0.32783514   2.57102116  -0.02441905
O   -2.14752412   2.46194824   1.62970109
H   -1.44899913   2.63913100   2.25970184
H   -1.99210896   1.56102282   1.34613210
O   -2.69139651  -2.39100174   3.41818513
H   -1.83953710  -1.95455000   3.42697574
H   -3.01898310  -2.26002746   2.52837357
O   -1.76862801  -3.26135451  -1.02614804
H   -2.24253072  -2.65979284  -1.60040549
H   -0.97148883  -2.78795207  -0.78804908
O   -0.41075265   2.69122897  -2.58997759
H   -0.32371414   3.12587550  -1.74160353
H   -0.72042897   1.81069678  -2.37785622
S   -0.34502811  -0.10480677  -0.33079499
O    0.75085151   0.86910793  -0.06501684
O    0.21176328  -1.48676991  -0.34695678
O   -1.37569644   0.00291173   0.73982144
O   -0.96703080   0.19552318  -1.65102776
