53
Energy:  -1379.17365698
O   -1.30766981  -1.44340613   3.22725949
H   -1.46888067  -0.79558423   2.54127866
H   -0.42173504  -1.76148546   3.05354427
O   -3.71740727  -1.00682983   0.23749998
H   -2.91830392  -0.57177147   0.53480438
H   -3.70447189  -0.90803538  -0.71450012
O   -3.39241876  -0.66857233  -2.46804576
H   -2.68075045  -1.30716711  -2.42381034
H   -2.95615794   0.18140089  -2.40927610
O    2.30995308   2.10773638  -1.31016963
H    1.76677819   1.89244116  -0.55198703
H    2.28869999   1.31915040  -1.85230643
O    2.14865069  -0.32534981  -2.50955227
H    2.61137603  -0.86836942  -1.87139335
H    1.25150300  -0.27851741  -2.17915161
O   -1.22085667  -2.31442813  -2.13388620
H   -1.07143787  -2.89546745  -1.38803153
H   -0.79000147  -1.49521179  -1.89000050
O    2.62444522  -1.72685440   2.60845504
H    3.30756042  -1.93168301   1.96999541
H    1.83789107  -1.58593842   2.08147582
O    3.22406578  -1.50918380  -0.23973795
H    2.33280050  -1.47905141   0.10806960
H    3.59032847  -0.64856815  -0.03620858
O    4.20230397   0.97657857   0.31954685
H    3.76519412   1.06703707   1.16629598
H    3.65297151   1.47165112  -0.28821038
O   -0.17826241   3.78600642   0.58102563
H    0.19403085   2.92678885   0.77945634
H   -0.07906773   3.87748993  -0.36661514
O    2.72392227   1.03280500   2.58587493
H    2.68580470   0.08894253   2.74047938
H    1.98140872   1.21165885   2.00888552
O   -1.92349228   1.68030241  -2.10002451
H   -2.28050928   1.99680353  -1.27020661
H   -1.26493121   1.03345817  -1.84680189
O   -2.56968061   2.48536341   0.43638296
H   -1.80775105   3.04992732   0.56662425
H   -2.28756124   1.62566899   0.74873854
O   -2.86371490  -3.11281274   1.74116870
H   -2.36662303  -2.59212026   2.37204973
H   -3.27137779  -2.46642941   1.16477352
O   -0.59655739  -3.55037480   0.26231325
H   -1.40437223  -3.45066512   0.76602448
H   -0.07642694  -2.77909015   0.48773765
O    0.11026781   3.57774873  -2.14001340
H    0.90082896   3.06830383  -1.96193807
H   -0.58282902   2.92314809  -2.22572591
S   -0.01684526   0.02226936   0.35652565
O    0.76541736   1.23794359   0.71749844
O    0.69281313  -1.19038499   0.85246355
O   -1.36764846   0.09735692   0.98085936
O   -0.15796307  -0.05583810  -1.12471877
