91
Energy:   -562.62551073
C    0.93601128   1.66732148  -3.17829912
H    0.94714936   0.90019426  -3.92414894
H    0.74944105   2.61324740  -3.64231936
H    0.16459753   1.46111275  -2.46605065
C    2.29876400   1.70677149  -2.46209472
N    3.31339534   1.73614381  -1.92884800
C    2.87964938   1.18218029   1.46676589
H    1.92317411   1.21094313   0.98798834
H    3.62974375   0.92128030   0.74969635
H    3.10063431   2.14402963   1.88017924
C    2.85863044   0.13193835   2.59288759
N    2.84298088  -0.65001451   3.43133638
C   -1.52286955  -1.08590787  -3.35933311
H   -1.35868531  -0.43729385  -4.19434422
H   -0.82824577  -1.89890304  -3.39722440
H   -1.38293449  -0.53930355  -2.45019011
C   -2.96031558  -1.63602451  -3.41149255
N   -4.03055948  -2.04561136  -3.45032763
C   -0.37739473   1.37030397   3.99724247
H   -1.13484645   1.62692675   4.70809536
H    0.26904975   0.62819455   4.41710225
H   -0.83606358   0.98372246   3.11119693
C    0.44251446   2.62543245   3.64510411
N    1.05297411   3.55993266   3.38292110
C   -2.34369466   4.07237123   1.61139719
H   -1.27804428   4.11871069   1.52688613
H   -2.77308570   4.96221257   1.20066028
H   -2.70728602   3.22064695   1.07542502
C   -2.73613340   3.95081674   3.09558597
N   -3.02832189   3.86031390   4.20063198
C   -4.06671700   0.67223255   2.77581353
H   -4.53546501   1.63408073   2.77095931
H   -3.16929407   0.70987721   2.19433777
H   -3.82852949   0.39661684   3.78189593
C   -5.02650212  -0.36961128   2.17168277
N   -5.74110577  -1.14531136   1.72187996
C   -2.31569907   3.77210791  -2.12621854
H   -1.86590693   4.67101651  -2.49302985
H   -1.68114663   3.33235387  -1.38536857
H   -3.26632030   4.00062422  -1.69147878
C   -2.50816106   2.78237414  -3.29025697
N   -2.65145775   2.04547236  -4.15693648
C   -3.00411283  -2.49344419   0.14081505
H   -3.85730879  -2.45120676  -0.50352402
H   -2.67326540  -1.49979855   0.36014908
H   -3.26863005  -2.99030829   1.05079076
C   -1.87161233  -3.26922994  -0.55718143
N   -1.02841423  -3.84683770  -1.07687153
C    1.42165682   4.15811044   0.05317888
H    0.77827176   3.32082829   0.22613681
H    1.29308398   4.87469063   0.83732234
H    2.43933911   3.82812869   0.03490626
C    1.06799675   4.80675926  -1.29803511
N    0.80468075   5.28970780  -2.30407535
C   -0.13447645  -2.18683400   2.51856097
H   -0.02521421  -1.30331787   1.92496078
H   -0.24566886  -3.03599722   1.87711170
H    0.73315622  -2.31415784   3.13166885
C   -1.38044312  -2.05302512   3.41369349
N   -2.30812194  -1.95339833   4.08016034
C    1.95031629  -5.32388533  -1.74999065
H    1.43685373  -4.72689829  -2.47446484
H    1.43311785  -5.27294017  -0.81467815
H    1.98384847  -6.33981809  -2.08413929
C    3.38543894  -4.79423867  -1.57251561
N    4.45395299  -4.39989265  -1.44037738
C   -4.62848461   0.62102841  -1.28168344
H   -5.26125491  -0.16927273  -0.93538004
H   -3.60674352   0.37268046  -1.08352306
H   -4.76582656   0.75248645  -2.33465783
C   -4.99064268   1.92670769  -0.54980697
N   -5.26028583   2.89884526  -0.00489168
C    5.34774685  -1.11729041  -2.64713072
H    4.66446962  -0.38844497  -3.03029745
H    5.00244053  -2.09783071  -2.90051451
H    6.31560051  -0.95840335  -3.07481433
C    5.43515263  -0.98371629  -1.11542638
N    5.50023021  -0.88426428   0.02499713
C    4.72678390  -3.39630353   2.07796987
H    5.30913633  -3.52526028   1.18963660
H    5.20745478  -3.89296427   2.89478240
H    4.63761851  -2.35290213   2.29765634
C    3.32515401  -3.99760113   1.86472158
N    2.28157684  -4.44529453   1.70594854
C    1.77645171  -1.67554054  -0.56479747
H    2.75299340  -1.72270141  -0.13000747
H    1.19184205  -2.50239391  -0.21919054
H    1.30270270  -0.75964353  -0.27915148
C    1.89420719  -1.73582054  -2.09910512
N    1.98188149  -1.78070174  -3.24146691
Cl  -0.97857427   0.92808308   0.17282114
