91
Energy:   -561.69230192
C    2.18442124   3.14907935  -1.55383530
H    2.95469694   2.82788869  -2.22347109
H    1.73824541   4.04685334  -1.92777124
H    1.43858396   2.38584222  -1.47576534
C    2.79140893   3.41772178  -0.16423205
N    3.24333885   3.61773828   0.87039073
C    1.49106471   2.04752799   3.34748132
H    1.84916015   3.04892914   3.46522499
H    0.87853879   1.98838473   2.47214529
H    2.32210631   1.38107053   3.24696562
C    0.66117424   1.65058081   4.58251766
N    0.04328307   1.35503559   5.50205835
C    0.80498839  -0.76353544  -3.08375743
H    0.25286281  -0.34169004  -2.27005971
H    0.82263521  -1.82912780  -2.98836039
H    0.33787756  -0.49591377  -4.00846561
C    2.24653123  -0.22219520  -3.06128575
N    3.31982540   0.18085721  -3.04455457
C   -2.83760248   1.40055736   3.50326634
H   -3.86189205   1.14330350   3.33136079
H   -2.50702687   0.95608182   4.41872270
H   -2.23829221   1.03847830   2.69417731
C   -2.70173151   2.93164901   3.59759253
N   -2.60056940   4.07161634   3.66782268
C   -3.72893038   3.73136395   0.14950598
H   -3.32963170   4.46456316   0.81874410
H   -4.13207247   4.21835862  -0.71375049
H   -2.95094184   3.06064460  -0.15010790
C   -4.84312264   2.94052998   0.85996867
N   -5.67268943   2.35171814   1.38894043
C   -4.23931553  -0.58361623   0.25420278
H   -3.54839111   0.22653271   0.14845625
H   -5.23479867  -0.19700055   0.32084154
H   -4.16382144  -1.22993606  -0.59519136
C   -3.90963310  -1.37584666   1.53298362
N   -3.66416955  -1.96569822   2.48509409
C   -1.27119784   3.81842600  -2.75548833
H   -0.82163549   4.78360308  -2.86144624
H   -1.05519971   3.42923389  -1.78246552
H   -2.33071234   3.90300228  -2.87867504
C   -0.70419754   2.86770990  -3.82611878
N   -0.28204004   2.15985855  -4.62325181
C   -1.03438873  -2.76148469   0.00389378
H   -1.01954635  -1.70820677   0.19173817
H   -0.03160490  -3.13413285  -0.01748437
H   -1.58163385  -3.25451605   0.78000070
C   -1.71138711  -3.03148662  -1.35270939
N   -2.21544317  -3.23251533  -2.36276212
C   -0.13301740   4.85152355   1.49635863
H   -0.57912353   3.90261373   1.28314593
H   -0.76641572   5.40239603   2.15986836
H    0.82126069   4.70166902   1.95657167
C    0.04721527   5.64007966   0.18590244
N    0.18140669   6.22719554  -0.78979177
C   -0.36280917  -1.52217414   3.26017355
H   -0.75349273  -2.49634707   3.05219846
H   -0.60723093  -0.86061118   2.45550496
H   -0.79106904  -1.15256973   4.16840544
C    1.16764452  -1.60420368   3.41044877
N    2.30713687  -1.66527840   3.52233550
C    1.08569967  -5.38745202  -1.74156528
H    0.79683963  -5.93654324  -2.61332149
H    1.07588744  -4.34008236  -1.96024222
H    0.39885719  -5.59238932  -0.94711754
C    2.50410673  -5.80964474  -1.31556678
N    3.56017525  -6.12398642  -0.99839154
C   -2.82777957   0.07883799  -3.07343468
H   -3.38658738  -0.83050464  -3.14913132
H   -2.17666771   0.02784572  -2.22587806
H   -2.24701102   0.21556366  -3.96164246
C   -3.79650270   1.26422173  -2.90598051
N   -4.51776111   2.14679380  -2.78130327
C    4.86612887  -3.08200946  -2.67923164
H    4.78408228  -3.61544749  -1.75532017
H    4.89515292  -2.03061850  -2.48267697
H    5.76371703  -3.37574237  -3.18217853
C    3.65058357  -3.40471925  -3.56799933
N    2.74555484  -3.64499136  -4.22972728
C    3.27834469  -4.67262367   2.25412846
H    3.54566157  -3.68911213   1.92832651
H    3.82978656  -5.39684558   1.69171084
H    3.50763520  -4.77854071   3.29389119
C    1.76993453  -4.89336594   2.03601921
N    0.64685461  -5.05771859   1.87362695
C    2.97428936  -0.03556108   0.56089684
H    3.48781243  -0.09114465   1.49796925
H    2.04431019   0.47670138   0.69365605
H    3.57700911   0.49660865  -0.14509421
C    2.70620847  -1.45876644   0.03723747
N    2.50661006  -2.51840752  -0.35265073
Cl  -0.73756198   1.16751263   0.12678274
