91
Energy:   -559.57779719
C    2.04787610   1.58520199   0.25924212
H    1.87256792   0.73553987  -0.36704975
H    2.37369833   2.40922809  -0.34052445
H    1.14246561   1.84828028   0.76512821
C    3.13436462   1.24346198   1.29575381
N    3.94330470   0.98902101   2.06748387
C    1.87076749   2.06083223   4.56796395
H    2.92217600   2.22839204   4.46136174
H    1.49643846   2.64864426   5.37990847
H    1.37139596   2.34179471   3.66431178
C    1.61500041   0.56928287   4.85338244
N    1.42457020  -0.54124342   5.06588948
C    0.94873523   0.05240362  -3.92631110
H    0.16089210   0.11153369  -3.20471078
H    1.21543688  -0.97236028  -4.08002599
H    0.61815919   0.47747393  -4.85093741
C    2.17457396   0.83041240  -3.41287000
N    3.08726661   1.40967530  -3.03058976
C   -0.92035136   0.00896052   2.48507863
H   -1.56785236  -0.23607849   1.66923641
H   -0.94441781  -0.77896085   3.20861150
H    0.07920748   0.13037039   2.12308294
C   -1.39241459   1.32091416   3.13893942
N   -1.74388713   2.29772328   3.62576851
C   -3.74711521   3.58056329  -2.69916729
H   -3.41936608   3.31587795  -3.68274360
H   -4.81083496   3.69629396  -2.69675903
H   -3.47074385   2.80887778  -2.01140320
C   -3.08563468   4.90559931  -2.27688414
N   -2.59313235   5.89214886  -1.96247514
C   -3.56166601  -2.13829910  -0.62980053
H   -3.14657652  -3.04210143  -1.02444245
H   -2.97487724  -1.30465114  -0.95477609
H   -4.56660521  -2.02497375  -0.97930541
C   -3.55726053  -2.20043314   0.90893919
N   -3.55398046  -2.24669476   2.05460087
C    0.52798734   3.95525059  -2.64266289
H    1.55325107   4.13090655  -2.89342065
H    0.47014560   3.20212834  -1.88479728
H    0.08937931   4.86113442  -2.27948721
C   -0.23311080   3.48257401  -3.89522286
N   -0.79978295   3.13064481  -4.82781069
C   -3.07154344   0.21838079  -3.90959779
H   -3.62288660   0.33580134  -3.00012909
H   -3.70705363   0.43570510  -4.74254199
H   -2.23898382   0.89049740  -3.91127833
C   -2.56162441  -1.23074967  -4.01731735
N   -2.18196651  -2.30969316  -4.09751945
C   -1.22864948   4.50085710   0.90391700
H   -1.22400531   3.92752673   0.00049522
H   -1.51572124   5.50823643   0.68556911
H   -1.92535400   4.07310438   1.59422817
C    0.18057130   4.49179522   1.52489579
N    1.22980023   4.48504824   1.98724273
C   -0.48761360  -3.64822481   3.26326745
H   -0.12054329  -4.34383087   3.98872714
H   -1.40668621  -3.22353790   3.60945474
H    0.23265317  -2.87026723   3.11870991
C   -0.72978906  -4.37798240   1.92894931
N   -0.91009970  -4.92132010   0.93548881
C    2.64305648  -5.17268136  -0.07501893
H    2.28779328  -4.78382980  -1.00640644
H    1.98020838  -4.87678732   0.71109697
H    2.68164773  -6.24077278  -0.12591603
C    4.05283564  -4.62094895   0.20731789
N    5.10248030  -4.21015909   0.41753049
C   -4.34992961   1.54053349   1.04566932
H   -3.89923833   0.67308069   1.48075918
H   -5.01431848   1.99036256   1.75358198
H   -3.58765630   2.24153864   0.77654058
C   -5.13946996   1.13267536  -0.21205790
N   -5.72731865   0.82900645  -1.14849299
C   -0.02491619  -2.42214099  -1.41050252
H    0.59294957  -2.63984259  -2.25652149
H   -0.63850902  -1.57249775  -1.62616264
H   -0.64683838  -3.26611241  -1.19643683
C    0.86403863  -2.11697607  -0.19057067
N    1.52590589  -1.88976692   0.71772404
C    3.79471691  -2.23408946   3.23527665
H    4.21883183  -1.92360438   4.16727757
H    3.03327535  -1.54202992   2.94174736
H    4.55918651  -2.26174105   2.48713180
C    3.17994926  -3.63720913   3.39312436
N    2.72222680  -4.68189551   3.51064916
C    4.66712712  -1.08488836  -0.90973447
H    5.67985465  -1.42919245  -0.88257144
H    4.22339622  -1.20542255   0.05642985
H    4.64921808  -0.05077715  -1.18394671
C    3.87397155  -1.90421729  -1.94472449
N    3.28343118  -2.51424492  -2.71532161
Cl  -1.34846136   1.15793430  -0.92053904
