91
Energy:   -560.06755790
C    2.68567959   2.85739986  -2.57397102
H    3.10072218   2.96333595  -3.55448996
H    1.86117986   3.52997494  -2.46109038
H    2.34697320   1.85173836  -2.43677764
C    3.76247774   3.18432711  -1.52267453
N    4.56420290   3.42773931  -0.73993650
C    0.23111396   2.17539739   3.34372405
H    0.00752433   2.63036872   2.40143484
H    1.16693782   1.66077237   3.27819640
H    0.29160988   2.93079754   4.09911133
C   -0.88104180   1.17404081   3.70703459
N   -1.70909232   0.42848531   3.97753580
C    0.51508679  -0.40521827  -2.95997892
H    1.29382676  -0.74886114  -3.60834133
H    0.89616120  -0.30872620  -1.96480524
H    0.16133415   0.54557778  -3.30019215
C   -0.64504164  -1.41794323  -2.96947521
N   -1.50880999  -2.17196300  -2.97654563
C   -3.65354428   1.81442335   1.39802766
H   -2.60963213   1.89048150   1.17585034
H   -3.79205235   1.79670976   2.45887677
H   -4.16836713   2.65666613   0.98513104
C   -4.21569028   0.51824851   0.78522863
N   -4.63423353  -0.44681257   0.32897189
C   -2.22909358   5.16877847   0.21174249
H   -2.21262313   4.16998531  -0.17171693
H   -1.58452007   5.78752235  -0.37696804
H   -3.22755863   5.55100585   0.16851203
C   -1.74345860   5.16564364   1.67316263
N   -1.38188128   5.16330962   2.76125636
C   -3.33809152  -3.84702446  -0.66531347
H   -3.45758941  -2.78853922  -0.76645419
H   -4.27711545  -4.33007640  -0.83792281
H   -2.62141158  -4.19491625  -1.37962450
C   -2.84609390  -4.17451470   0.75675842
N   -2.47977930  -4.41834607   1.81555559
C   -0.95374482   4.57610447  -3.23219368
H   -0.46216623   4.33703653  -2.31235827
H   -1.99955708   4.71349855  -3.05247534
H   -0.53956520   5.47703869  -3.63427810
C   -0.75217134   3.42576501  -4.23602995
N   -0.60209072   2.56928498  -4.98343167
C   -1.18374809  -1.07272033   0.77575938
H   -1.65890355  -0.83078099  -0.15192204
H   -0.78118582  -0.18296620   1.21300108
H   -1.90113107  -1.50446242   1.44198721
C   -0.04677092  -2.08012885   0.52275548
N    0.79976026  -2.83019029   0.33438257
C    1.93028532   4.87939560   1.04537731
H    2.96451312   5.06964089   1.24306336
H    1.79309706   3.83965571   0.83319949
H    1.34807584   5.14848577   1.90183612
C    1.47716460   5.71474558  -0.16642796
N    1.13979562   6.33670161  -1.06867207
C   -0.14459680  -2.84373379   3.99883153
H   -1.08179604  -2.33455052   3.91344913
H   -0.08275412  -3.31899095   4.95549511
H   -0.06833178  -3.58209096   3.22817503
C    1.00549972  -1.82987787   3.85400694
N    1.86179885  -1.07501605   3.74617845
C    0.46626968  -6.20576869   1.11529503
H    0.04196420  -6.96087192   1.74353396
H    0.30679865  -5.24394881   1.55616984
H    1.51666580  -6.37944467   1.00850669
C   -0.20531492  -6.25332266  -0.26973665
N   -0.70534018  -6.28872874  -1.30095569
C   -3.13127023   1.04278126  -2.58688236
H   -2.69690134   1.11299949  -3.56222498
H   -3.86342127   0.26254276  -2.57783576
H   -2.36696350   0.82300363  -1.87103872
C   -3.80271809   2.38099755  -2.22641748
N   -4.30264155   3.37736040  -1.95803500
C    1.92788447  -3.99365050  -2.51221569
H    0.89023860  -4.14423101  -2.29886919
H    2.11870456  -4.22833723  -3.53857281
H    2.18568627  -2.97199243  -2.32606487
C    2.77564020  -4.90957918  -1.61000460
N    3.40683287  -5.59152972  -0.93826743
C    3.95538556  -3.26849648   1.64523118
H    3.41273764  -3.20802050   0.72502682
H    4.93444365  -3.65700687   1.45707162
H    4.03574683  -2.29265121   2.07670213
C    3.21161965  -4.20086150   2.61945279
N    2.65785212  -4.89504963   3.34480506
C    2.77409254   0.45326376   0.84702384
H    2.79687099   1.50662648   0.66045400
H    3.40921171   0.22425607   1.67713118
H    1.77200858   0.15229455   1.07095321
C    3.26946446  -0.30002189  -0.40148222
N    3.63829136  -0.86087730  -1.33105174
Cl  -0.15942459   2.12663239  -0.46724372
