91
Energy:   -558.80156732
C    2.31462275   3.46010149  -1.15058223
H    3.10594183   3.06687608  -1.75397933
H    1.98293080   4.39136988  -1.55999491
H    1.49970260   2.76687478  -1.13505907
C    2.82597999   3.68345048   0.28476755
N    3.20670871   3.84974395   1.35345071
C    1.55267114   1.86193312   3.56652678
H    2.29817699   1.10091167   3.66636444
H    1.99169513   2.81865967   3.75844171
H    1.15592309   1.84440453   2.57295603
C    0.41885224   1.60549171   4.57662207
N   -0.42532747   1.41455941   5.32868393
C    0.47226236   0.14472728  -3.51167907
H   -0.11590192   0.58047899  -2.73124111
H    0.19818273  -0.88234198  -3.63377820
H    0.29768681   0.67163650  -4.42644087
C    1.96450995   0.23742727  -3.14262104
N    3.07555611   0.30644663  -2.86784056
C   -3.13697061   1.38177142   3.24951723
H   -4.01485535   0.92319242   2.84464211
H   -2.96133761   1.00669987   4.23611415
H   -2.29675039   1.15514206   2.62696748
C   -3.33554245   2.90778462   3.30827909
N   -3.48338820   4.04397080   3.35202995
C   -3.55665408   3.56067364  -0.22363152
H   -3.81561895   4.33055772   0.47287109
H   -3.68601506   3.92430320  -1.22159864
H   -2.53564913   3.27601189  -0.07729061
C   -4.46724066   2.33895928  -0.00036909
N   -5.14521376   1.42933741   0.16585993
C   -3.59730287  -1.60454332   0.72357039
H   -2.82004149  -0.87112244   0.67010311
H   -4.48056064  -1.22296432   0.25543339
H   -3.28292767  -2.49476821   0.22001606
C   -3.89721310  -1.92805184   2.19903509
N   -4.12050990  -2.16891865   3.29758563
C   -0.96938024   3.94498949  -2.83245687
H   -1.94443033   3.99381635  -3.27039916
H   -0.73875945   4.88193979  -2.37003144
H   -0.94754762   3.16891039  -2.09616640
C    0.07062065   3.64318051  -3.92740412
N    0.84494859   3.41847001  -4.74264212
C    0.58616469  -2.21430123  -0.58326053
H    1.35777286  -2.93802078  -0.74373180
H    0.37019036  -2.14916318   0.46268938
H    0.91255841  -1.25984830  -0.94017206
C   -0.68329792  -2.64013566  -1.34400341
N   -1.62847053  -2.95718875  -1.91041107
C   -0.32624190   4.61909689   2.03881699
H   -0.68614076   3.64760032   1.77129613
H   -1.01769977   5.08304542   2.71078191
H    0.62734748   4.52741781   2.51543145
C   -0.18552973   5.48153751   0.77074906
N   -0.08076312   6.12366375  -0.17338515
C   -0.59232615  -1.60486205   3.17504956
H   -0.96528301  -2.56829444   2.89647932
H   -0.80265442  -0.90209154   2.39609209
H   -1.06654330  -1.28681653   4.07996074
C    0.92968930  -1.68745170   3.39470365
N    2.06289898  -1.74894346   3.55824611
C    0.15647066  -5.97642787  -1.88957062
H   -0.17636287  -6.95200135  -2.17658699
H   -0.02070994  -5.28920242  -2.69033732
H   -0.38045013  -5.65769802  -1.02064805
C    1.66327702  -6.02015504  -1.57457456
N    2.78516285  -6.05271191  -1.34004568
C   -3.21473638  -0.02537394  -2.52639748
H   -4.09231969  -0.49224841  -2.13044808
H   -2.53208407   0.18457798  -1.72965091
H   -2.74891768  -0.68160136  -3.23157661
C   -3.60461285   1.28888177  -3.22805857
N   -3.89489361   2.26740488  -3.75047714
C    4.25735504  -3.10566296  -2.88099371
H    4.39138271  -3.75430321  -2.04063510
H    4.46504831  -2.09719809  -2.58985595
H    4.92525607  -3.39525807  -3.66517607
C    2.80425155  -3.20674115  -3.38086715
N    1.72234996  -3.28199845  -3.75304564
C    3.15367118  -4.76755031   1.97116401
H    3.42676999  -3.86213381   2.47170191
H    3.65594612  -4.81902547   1.02778218
H    3.43645521  -5.60652659   2.57203928
C    1.63071230  -4.78908884   1.74371661
N    0.49680018  -4.80512526   1.57437169
C    3.06583800   0.16372552   0.73432015
H    3.66212369   0.79821663   1.35622415
H    2.13364979  -0.03734793   1.21959708
H    2.88337121   0.65043481  -0.20094400
C    3.81190363  -1.16057181   0.48688804
N    4.36738340  -2.14657137   0.30266359
Cl  -0.54359667   1.14194442   0.20945698
