91
Energy:   -557.08194638
C    0.15655469   4.62444913   1.55292050
H    0.07772490   5.31154339   0.73647238
H   -0.13299108   5.11322897   2.45964902
H   -0.48648999   3.78732521   1.37794572
C    1.61224636   4.13690123   1.67481729
N    2.69607497   3.77389966   1.76557500
C    1.12157689   1.56567450   3.90276356
H    1.26905899   2.59995372   4.13388196
H    0.53245584   1.47935662   3.01372773
H    2.07047399   1.09577168   3.74886515
C    0.39150305   0.87762638   5.07117358
N   -0.15207011   0.36534328   5.94110795
C    0.87016385  -0.47257791  -3.14725970
H    0.40140063  -0.26698319  -2.20763636
H    0.82654635  -1.52318613  -3.34529747
H    0.36031910   0.05823676  -3.92391484
C    2.34140701  -0.02036565  -3.09678565
N    3.43681442   0.31632694  -3.05920543
C   -2.84837790   1.03217564   3.57253131
H   -3.90814836   0.96988601   3.43871524
H   -2.56592290   0.48011177   4.44450824
H   -2.35596594   0.62201058   2.71568000
C   -2.43832908   2.50671913   3.74335718
N   -2.13302909   3.60458378   3.87054479
C   -3.84520147   3.58905719   0.55723717
H   -3.33017048   4.19699041   1.27142234
H   -4.25851049   4.21136599  -0.20879579
H   -3.15942316   2.89352277   0.12038585
C   -4.97861519   2.81947658   1.26059982
N   -5.82249322   2.24648883   1.78428529
C   -4.34768975  -0.54856468   0.17043252
H   -3.63804836   0.25154686   0.13680511
H   -5.32965300  -0.14857029   0.31413969
H   -4.31547813  -1.09280522  -0.75025404
C   -4.00210987  -1.49252224   1.33710243
N   -3.74480994  -2.19534155   2.20574120
C   -1.44641112   4.14522257  -2.19796160
H   -1.21420215   3.67131827  -1.26715878
H   -2.50811544   4.17638354  -2.32723662
H   -1.05777242   5.14214718  -2.19735209
C   -0.81190599   3.34761440  -3.35244175
N   -0.33948807   2.75375885  -4.21200470
C   -1.14388077  -2.72069213  -0.35614000
H   -1.30145481  -1.71115375  -0.03848792
H   -0.09863656  -2.94674961  -0.32062026
H   -1.67485827  -3.38569363   0.29250088
C   -1.65725247  -2.89121423  -1.79800397
N   -2.03948103  -3.01817569  -2.87153724
C    2.34314204   3.22274172  -1.68542928
H    3.24672600   3.08309206  -1.12961081
H    2.49663392   2.91542552  -2.69878809
H    1.56181484   2.63607235  -1.24925735
C    1.94626941   4.71040642  -1.65467467
N    1.65077970   5.81804042  -1.63177647
C   -0.40896672  -1.92033617   2.99393427
H   -0.71979763  -2.87966537   2.63620277
H   -0.65058652  -1.17319733   2.26709006
H   -0.91342404  -1.70134106   3.91179213
C    1.11219347  -1.93012995   3.23388378
N    2.24476637  -1.93742186   3.41253710
C    1.19158169  -5.05245540  -2.20406383
H    0.99112871  -5.41786109  -3.18955734
H    1.20785619  -3.98265526  -2.21678761
H    0.42660574  -5.38960783  -1.53620223
C    2.55765699  -5.58101030  -1.72859775
N    3.57476214  -5.97454345  -1.37459164
C   -2.77446693   0.35679702  -3.12160496
H   -3.28944333  -0.56019034  -3.31866754
H   -2.10384888   0.21962595  -2.29919714
H   -2.22003387   0.64805421  -3.98917186
C   -3.79644551   1.45480647  -2.77298622
N   -4.55735502   2.27232441  -2.51342371
C    4.99120496  -2.82861626  -2.60598534
H    5.92290504  -3.20774052  -2.97081400
H    4.73440165  -3.32901664  -1.69573779
H    5.08082509  -1.77827434  -2.42254822
C    3.89087019  -3.07446590  -3.65499504
N    3.07162093  -3.25751212  -4.43603044
C    3.18974483  -4.79037172   1.88267107
H    3.52345050  -3.87231031   1.44597442
H    3.75232989  -5.60430868   1.47535822
H    3.33193748  -4.75360093   2.94254288
C    1.69510241  -4.99315587   1.57199016
N    0.58227319  -5.14413790   1.34067410
C    2.89713035   0.19413434   0.68801833
H    1.96425551   0.69191552   0.85190432
H    3.50218646   0.77896634   0.02712671
H    3.40488067   0.07156894   1.62186329
C    2.63816290  -1.18761924   0.05929510
N    2.44534987  -2.21639760  -0.40881791
Cl  -0.81351508   1.13254982   0.20966385
