91
Energy:   -558.23986244
C    2.39301762   3.14341708  -0.79092593
H    1.92228528   4.07619769  -1.02164564
H    1.68133400   2.35059404  -0.89010826
H    3.20715562   2.97832798  -1.46533235
C    2.92306355   3.17958775   0.65453005
N    3.31770684   3.20651846   1.73073773
C    1.30924730   1.37973949   3.72957022
H    1.91566795   2.23740484   3.93344349
H    0.94773209   1.42948128   2.72372152
H    1.89322966   0.49199921   3.85519224
C    0.11626634   1.35143384   4.70301525
N   -0.77196221   1.33035899   5.42778932
C    1.25142112  -0.46779302  -3.06769344
H    0.57967451  -0.17259507  -2.28890281
H    1.28220909  -1.53573881  -3.12637034
H    0.91276341  -0.06892294  -4.00102763
C    2.66133885   0.07031245  -2.76081483
N    3.71108670   0.47095642  -2.53232975
C   -3.44614522   1.43712774   3.18989668
H   -4.41661288   1.14133679   2.84989605
H   -3.22412399   0.94006846   4.11105776
H   -2.71460758   1.17110972   2.45573989
C   -3.42180917   2.96110916   3.41009741
N   -3.40368988   4.09578261   3.57404686
C   -3.50709499   3.87145359  -0.10139168
H   -3.33769517   4.62831299   0.63574314
H   -3.63346427   4.32931425  -1.06018963
H   -2.66810523   3.20802798  -0.13074716
C   -4.77654713   3.07800027   0.25988812
N   -5.72171195   2.48723821   0.52887736
C   -4.23254554  -0.44789376  -0.40725160
H   -3.52589597   0.34693786  -0.28982391
H   -5.20309981  -0.03766599  -0.59336088
H   -3.94187784  -1.06462450  -1.23190582
C   -4.27106430  -1.29464873   0.87848644
N   -4.29974327  -1.92509630   1.83577686
C   -0.70688566   3.95423727  -2.54977401
H   -0.15342609   4.85590121  -2.38982145
H   -0.69323106   3.36426467  -1.65722430
H   -1.71818557   4.19644358  -2.80178134
C   -0.06758911   3.15703729  -3.70189037
N    0.40839623   2.56348567  -4.55969337
C   -1.05790911  -2.87400959  -0.00989975
H   -0.34119375  -3.64682057   0.17444355
H   -1.93637889  -3.05576764   0.57332744
H   -0.63934831  -1.92733207   0.26122312
C   -1.42751901  -2.86265169  -1.50484441
N   -1.70271037  -2.85419522  -2.61789866
C   -0.23141272   4.34108044   2.25345566
H   -0.70007420   3.42155912   1.97107801
H   -0.82190523   4.82731369   3.00165010
H    0.74386819   4.13896434   2.64444839
C   -0.11069799   5.25558910   1.02028825
N   -0.02082038   5.93648237   0.10213906
C   -1.26237075  -1.57945314   3.29413469
H   -1.87475959  -2.43653846   3.10629209
H   -1.38071021  -0.87502832   2.49746628
H   -1.55674970  -1.12624653   4.21763017
C    0.21302001  -2.01201562   3.38195159
N    1.31151549  -2.33407805   3.44733526
C    1.11125673  -4.89021803  -3.02183855
H    1.90471890  -5.35633357  -3.56778200
H    1.37513608  -3.87618182  -2.80504983
H    0.21629843  -4.90835591  -3.60802942
C    0.87754586  -5.65271056  -1.70442275
N    0.70353750  -6.22042091  -0.72354682
C   -2.32107018   0.39142185  -3.38141419
H   -2.89211753  -0.49095331  -3.58196138
H   -1.80781875   0.27989249  -2.44919466
H   -1.60830838   0.54082392  -4.16534578
C   -3.26373311   1.60687625  -3.30619982
N   -3.96558851   2.51183730  -3.25019930
C    5.32867151  -2.66976419  -1.96531675
H    6.34184640  -2.95360237  -2.15977167
H    4.95848366  -3.22130576  -1.12647114
H    5.28668968  -1.62245524  -1.75018751
C    4.46367174  -2.97478436  -3.20238509
N    3.81964009  -3.20188573  -4.12343871
C    2.51059969  -5.09797332   1.94293989
H    2.34719798  -5.02087812   2.99757556
H    2.39736825  -6.11734566   1.63805012
H    1.79781584  -4.48985838   1.42618609
C    3.93462311  -4.61702871   1.60760485
N    4.99487327  -4.25894359   1.35793266
C    2.86452467  -0.49640980   0.91981164
H    3.67517060   0.01955076   0.44913334
H    3.16055800  -0.80699994   1.90001423
H    2.02016877   0.15680158   0.99245525
C    2.48697446  -1.73212797   0.08192355
N    2.20587116  -2.65217632  -0.54192221
Cl  -0.70493168   1.01611751   0.23912968
