91
Energy:   -559.57807623
C    0.91890778   0.89831863  -3.41811504
H    0.78909241  -0.05871799  -3.87868975
H    0.65532227   1.66754565  -4.11360879
H    0.29013363   0.96704039  -2.55508580
C    2.39007836   1.06971638  -2.99635688
N    3.48543172   1.19732981  -2.68233875
C    2.77322863   1.71980615   0.69874799
H    2.81825951   2.76955444   0.90098776
H    1.85350058   1.49142899   0.20191475
H    3.59532200   1.44155871   0.07293656
C    2.84893892   0.93811264   2.02344539
N    2.90530867   0.35610628   3.00974282
C   -1.65716628  -1.90581143  -2.75882288
H   -2.46439057  -2.52337328  -2.42429861
H   -1.22248050  -1.40210093  -1.92083535
H   -0.91565914  -2.51407085  -3.23325595
C   -2.18820622  -0.86650988  -3.76353620
N   -2.58358960  -0.09270263  -4.51159094
C   -0.31767344   1.98662670   3.66821223
H   -1.01915025   2.29565921   4.41475718
H    0.41035286   1.33839198   4.10942481
H   -0.83298771   1.46583242   2.88838942
C    0.38578373   3.22438097   3.08109011
N    0.90953956   4.14594529   2.64395100
C   -2.89612687   3.94368262   1.06276808
H   -3.59625597   3.28436488   0.59370568
H   -1.89991175   3.62021801   0.84407840
H   -3.03806799   4.93720588   0.69173796
C   -3.11798069   3.92822373   2.58662565
N   -3.28316094   3.91671388   3.72120688
C   -3.92085080   0.46146467   2.85203560
H   -3.72347280   1.07766614   3.70423150
H   -3.05138025   0.42459475   2.22949189
H   -4.16922289  -0.52736365   3.17673385
C   -5.09884715   1.05083495   2.05418395
N   -5.97591898   1.48964792   1.46014712
C   -2.17036422   2.99887760  -3.23344059
H   -1.32730168   3.15262788  -3.87414847
H   -2.99291350   2.62864577  -3.80897525
H   -1.91701044   2.28785458  -2.47504938
C   -2.56452871   4.33379320  -2.57447574
N   -2.85800209   5.32769855  -2.08384645
C   -2.93070723  -2.58360988   0.88195523
H   -3.83534151  -2.98132158   0.47163534
H   -2.80361819  -1.57347419   0.55275415
H   -2.98336817  -2.60658060   1.95041124
C   -1.73582882  -3.43198346   0.40853380
N   -0.84618753  -4.06363615   0.05605003
C    0.58233073   4.39883495  -0.69027274
H    1.44424565   4.70238542  -0.13362207
H    0.28701511   3.41726694  -0.38333297
H   -0.21861155   5.08501788  -0.50987450
C    0.91961007   4.38708284  -2.19283873
N    1.17072986   4.37833287  -3.31156740
C    0.14498145  -1.67252801   3.00609901
H    0.03500255  -0.89098600   2.28360548
H    0.23699527  -2.61259956   2.50340822
H    1.02166390  -1.49471075   3.59321739
C   -1.09093186  -1.70028797   3.92443865
N   -2.01112550  -1.72095652   4.60818424
C    2.15524321  -5.57843228  -0.46000981
H    1.57870325  -5.17753554  -1.26734100
H    1.68527202  -5.33405704   0.46967128
H    2.21716135  -6.64198212  -0.55964403
C    3.57232362  -4.97642379  -0.49270344
N    4.62740440  -4.52820111  -0.51704534
C   -4.71229441   0.84128296  -1.62985293
H   -5.58266811   1.35017305  -1.27155044
H   -4.50310747   1.15432191  -2.63142496
H   -3.87839181   1.07521439  -1.00153643
C   -4.96087654  -0.67836955  -1.60833170
N   -5.14595725  -1.80981992  -1.59230816
C    5.37217927  -1.68690019  -2.55036225
H    6.23988078  -1.37827564  -3.09510545
H    4.49352182  -1.33963394  -3.05262346
H    5.35000826  -2.75497821  -2.49022159
C    5.41985740  -1.09365769  -1.13001366
N    5.45535594  -0.65196169  -0.07249957
C    4.96663145  -2.58504451   2.58330753
H    5.52491990  -2.89264475   1.72389128
H    5.53914528  -2.77465716   3.46714804
H    4.75316352  -1.53883219   2.51424007
C    3.64635336  -3.37519471   2.64756047
N    2.66334632  -3.96349745   2.69539971
C    1.82724054  -1.76723543  -0.17857809
H    1.46475132  -2.58240806   0.41218018
H    1.17935951  -0.92414859  -0.05877056
H    2.81458753  -1.50656355   0.14094531
C    1.86037690  -2.18258440  -1.66113912
N    1.88504843  -2.49183058  -2.76497320
Cl  -1.12197328   0.81081254   0.02883121
