91
Energy:   -557.57830523
C    2.28455517   3.18457234  -1.00874846
H    3.03388313   3.00965429  -1.75226138
H    1.80227326   4.12004714  -1.20159596
H    1.56078303   2.39710881  -1.03963828
C    2.94190048   3.22329805   0.38337131
N    3.43132394   3.25213110   1.41986776
C    1.82017370   1.24577459   3.58388042
H    2.51729259   2.05003770   3.69381812
H    1.31630926   1.33643393   2.64430573
H    2.34322494   0.31301335   3.61955892
C    0.78922712   1.30023428   4.72658918
N    0.02164054   1.34078199   5.57738779
C    1.26815981  -0.10198901  -3.26288642
H    0.67572106   0.24634749  -2.44277778
H    1.18068808  -1.16564148  -3.33964066
H    0.92373431   0.35053444  -4.16924876
C    2.74244054   0.27623645  -3.02827645
N    3.84010956   0.55784249  -2.85359866
C   -2.80885957   1.66977713   3.69234943
H   -2.14777885   1.41288450   2.89117614
H   -2.61606255   1.03449093   4.53147985
H   -2.64937867   2.68986931   3.97319969
C   -4.26734110   1.48567718   3.23350431
N   -5.35324689   1.34860640   2.89187325
C   -3.90150940   3.39891404   0.26208817
H   -3.07802282   2.73559807   0.09843625
H   -4.08030795   3.97097136  -0.62429808
H   -4.77549790   2.83008054   0.50182063
C   -3.57148758   4.34895498   1.42832477
N   -3.32577132   5.05630365   2.29664093
C   -4.31561020  -0.45240381   0.08403251
H   -4.40033283  -0.94097796  -0.86413286
H   -3.46765021   0.20010879   0.07453200
H   -5.20173476   0.11701620   0.27229614
C   -4.13874415  -1.50789366   1.19139856
N   -4.00705934  -2.29375384   2.01588292
C   -1.20775338   4.06905893  -2.11610403
H   -0.82148111   5.05951681  -1.99491368
H   -1.00464508   3.49674396  -1.23513769
H   -2.26480445   4.11548679  -2.27543570
C   -0.53465627   3.40042309  -3.32914418
N   -0.03350487   2.90259332  -4.23230770
C   -1.02369218  -2.99171229   0.11893583
H   -0.62817927  -2.00903471   0.26998053
H   -0.21848992  -3.69169731   0.03788412
H   -1.64516044  -3.25744181   0.94843212
C   -1.85737619  -3.01612641  -1.17565868
N   -2.47809183  -3.03430383  -2.13954313
C   -0.00762075   4.26660914   2.43727830
H   -0.42167257   3.33787190   2.10424917
H   -0.66062761   4.70949408   3.16000512
H    0.94980032   4.09132164   2.88170858
C    0.15017575   5.21815793   1.23675543
N    0.26766241   5.92662926   0.34291158
C   -0.98794130  -1.54360251   3.42494634
H   -1.65729997  -2.37838198   3.42649088
H   -1.22551603  -0.89745380   2.60583146
H   -1.08709634  -1.00522750   4.34430466
C    0.46007651  -2.04697365   3.27844748
N    1.53819158  -2.42175634   3.16937241
C    0.50206607  -4.51187800  -3.38476972
H    1.11600195  -4.82036835  -4.20502372
H    0.74790752  -3.50641623  -3.11364667
H   -0.52764306  -4.56243180  -3.67120037
C    0.74664127  -5.44223780  -2.18218351
N    0.92873862  -6.13493296  -1.28680340
C   -2.36918510   0.23800761  -3.13993298
H   -2.82495765  -0.67224030  -3.46950893
H   -1.87652165   0.07197526  -2.20472441
H   -1.65434867   0.56257894  -3.86695528
C   -3.45111243   1.31990845  -2.96522228
N   -4.25665650   2.12543280  -2.83514223
C    4.98133358  -2.87905669  -2.65711495
H    4.67757735  -3.56312071  -1.89246552
H    5.01883599  -1.88823529  -2.25491400
H    5.95034655  -3.15452651  -3.01771077
C    3.96988396  -2.92408750  -3.81752086
N    3.21681374  -2.95761497  -4.68149581
C    2.69508224  -5.06147099   1.43073522
H    2.59153492  -5.07222788   2.49565889
H    2.62742728  -6.06130240   1.05568984
H    1.91564745  -4.46643119   1.00259023
C    4.06329142  -4.46339070   1.05403427
N    5.08198535  -4.01809274   0.77356328
C    2.97213233  -0.51850902   0.58351702
H    3.78826473  -0.02910051   0.09432648
H    3.30112139  -0.90563261   1.52521794
H    2.17982718   0.18264940   0.74329349
C    2.46433967  -1.67486889  -0.29771987
N    2.08626496  -2.53583138  -0.95384080
Cl  -0.64998190   0.98261651   0.34926915
