91
Energy:   -558.73739428
C    2.58723305   1.29616857   0.66212449
H    3.05107246   2.13872814   0.19324651
H    2.16861662   1.59569517   1.60017736
H    1.81125517   0.91842237   0.02961738
C    3.63897572   0.19608843   0.89720119
N    4.42204594  -0.62297123   1.07222649
C   -1.81370811  -2.77316271   2.72262410
H   -1.01763036  -3.45429149   2.50531331
H   -1.73129108  -1.91453870   2.08948008
H   -2.75301783  -3.25536211   2.54918797
C   -1.72617991  -2.33461569   4.19626426
N   -1.66101118  -2.00809750   5.29345634
C    0.65302173   0.73663244  -5.36180238
H    0.73646560   1.46743713  -6.13888784
H    0.81175164  -0.23909525  -5.77126468
H    1.38781051   0.93127310  -4.60874226
C   -0.75307658   0.80900155  -4.73790313
N   -1.79998067   0.86288365  -4.27338177
C   -4.19629050   0.21381957   3.01925015
H   -3.68608266  -0.52231167   2.43384521
H   -4.63680576  -0.25361665   3.87502393
H   -3.49979019   0.96027346   3.33955156
C   -5.29903747   0.87172257   2.16912500
N   -6.12008271   1.36156126   1.53616818
C   -3.42101338   3.82686030   1.54265520
H   -4.26409639   3.50632138   0.96701119
H   -3.75940540   4.38577406   2.39000716
H   -2.87084497   2.97180958   1.87597497
C   -2.51240218   4.71441416   0.67186601
N   -1.83589983   5.37523835   0.02352387
C   -3.63473851   0.65676191  -1.01125899
H   -4.62695593   1.05629762  -0.98340245
H   -3.24619095   0.73578864  -2.00508224
H   -3.00974649   1.20682944  -0.33916542
C   -3.66542655  -0.82369898  -0.58830060
N   -3.68827519  -1.92596941  -0.27338885
C   -0.37287467   2.54921129  -1.57977461
H   -1.08979412   3.04327154  -2.20173213
H   -0.41839704   2.95550026  -0.59095911
H   -0.59158049   1.50235751  -1.54565693
C    1.03924698   2.76006873  -2.15688082
N    2.09063574   2.91706167  -2.58656263
C    0.13419174  -2.04237219  -0.23759160
H    0.32476791  -3.08899880  -0.35228102
H   -0.92145943  -1.87566014  -0.18556493
H    0.59532692  -1.69238074   0.66227473
C    0.71556418  -1.27967773  -1.44254108
N    1.14842239  -0.71181703  -2.33968073
C    0.41539330   4.07629939   2.59055820
H    0.54389860   3.62084232   1.63089918
H    0.64186719   5.11988984   2.52327032
H   -0.59747692   3.95114024   2.91200525
C    1.36226625   3.40996143   3.60595237
N    2.06725620   2.91384253   4.36195949
C   -1.07388919   1.34683261   5.41103562
H   -1.51162457   0.76827299   6.19751937
H   -0.09498986   1.66425030   5.70412469
H   -1.00517324   0.75044187   4.52531823
C   -1.95166192   2.58104082   5.13202822
N   -2.60520362   3.49996493   4.92429453
C    2.38411121  -3.06611926  -4.71566430
H    2.06927043  -3.45963278  -5.65955125
H    3.44633383  -3.15931521  -4.62680089
H    2.10991980  -2.03392035  -4.65021520
C    1.70306949  -3.85121767  -3.57926531
N    1.19600297  -4.43575912  -2.73316460
C   -1.99210890  -2.58473514  -3.32715076
H   -1.87457002  -1.61166211  -2.89794957
H   -1.52177718  -3.31125529  -2.69798017
H   -3.03394400  -2.81154253  -3.41680069
C   -1.33873818  -2.61315393  -4.72138858
N   -0.85227398  -2.63431301  -5.75946200
C    3.47737507  -3.69075907  -0.05804071
H    2.97378692  -2.82085561   0.30879322
H    4.13054090  -4.07079439   0.69948594
H    2.75639830  -4.43838069  -0.31524392
C    4.29976409  -3.31978605  -1.30610134
N    4.91207009  -3.04357977  -2.23533920
C    1.82107618  -0.63789735   3.98403650
H    1.38858547  -0.69191652   4.96124369
H    1.27215483   0.06196789   3.38924822
H    2.83931651  -0.31846505   4.06180998
C    1.76807088  -2.02717911   3.32170226
N    1.72860602  -3.06156252   2.82856431
C    4.47601461   0.29557035  -2.65088908
H    5.47642681  -0.00058163  -2.41346622
H    3.78531270  -0.30276987  -2.09427527
H    4.33959839   1.32623618  -2.39787196
C    4.22660027   0.09958179  -4.15786650
N    4.04089995  -0.04634060  -5.27987970
Cl  -0.89187344   0.85272328   1.61512720
