91
Energy:   -557.91843834
C    2.74912446   3.04855399  -0.58602993
H    2.52103754   4.04317137  -0.90791934
H    1.90665302   2.41368758  -0.76515452
H    3.59400227   2.68225856  -1.13092279
C    3.07393632   3.05797311   0.91929679
N    3.31577352   3.06498608   2.04008096
C    1.02167550   1.37023442   3.88578505
H    1.52902196   2.27547740   4.14662007
H    0.66668456   1.43780148   2.87865288
H    1.69766277   0.54521178   3.97109594
C   -0.17052102   1.15753068   4.83711285
N   -1.05816552   0.99916308   5.54541964
C    1.57870773  -0.29316020  -2.69033975
H    1.44826256  -0.27128089  -3.75213329
H    1.01105615   0.49693568  -2.24489695
H    1.24087393  -1.23400760  -2.30879869
C    3.06967596  -0.10768021  -2.35238872
N    4.17976959   0.03041807  -2.10076883
C   -3.24964299   1.64663587   2.93829323
H   -2.69040755   0.92740148   2.37717132
H   -3.36714208   1.30115636   3.94414459
H   -2.72807841   2.58090761   2.94070120
C   -4.63607869   1.83437543   2.29474844
N   -5.66834310   1.97415606   1.81560010
C   -3.63432756   3.80501266  -0.50457471
H   -3.59271121   4.40076093  -1.39241043
H   -4.59213001   3.33292627  -0.43639854
H   -2.86987188   3.05721369  -0.54067593
C   -3.41594879   4.70330512   0.72708327
N   -3.25335587   5.37212469   1.64410861
C   -4.23706026  -0.03684373  -0.77275413
H   -3.36539118   0.58248159  -0.73364733
H   -5.11234347   0.57424608  -0.69962654
H   -4.25256754  -0.57275668  -1.69874329
C   -4.20953970  -1.03640947   0.39844652
N   -4.18904939  -1.78063160   1.27045863
C   -0.44103258   4.25712750  -2.33286076
H    0.00550632   5.22165077  -2.20958037
H   -0.48768524   3.76196496  -1.38547663
H   -1.42996357   4.36949991  -2.72565465
C    0.40675302   3.41986516  -3.30848945
N    1.03796793   2.79648529  -4.03488936
C   -1.19390415  -2.60484545  -0.52949315
H   -1.08125002  -1.56709430  -0.29437238
H   -0.23185014  -3.07282671  -0.54805981
H   -1.80472126  -3.07450253   0.21295131
C   -1.86156165  -2.74893332  -1.90973666
N   -2.35866300  -2.85621329  -2.93739069
C   -0.04480259   4.54429136   2.25967983
H   -0.51853308   3.67317456   1.85764112
H   -0.75240081   5.09984572   2.83895801
H    0.77350986   4.24971394   2.88296785
C    0.47767037   5.42243822   1.10751661
N    0.86667524   6.07625848   0.24967872
C   -1.24011545  -1.76428728   2.95257427
H   -1.72566396  -2.65561277   2.61392741
H   -1.21165843  -1.04935243   2.15698804
H   -1.78147061  -1.35563593   3.78012352
C    0.19690390  -2.09856968   3.39397054
N    1.26683012  -2.34745812   3.72261013
C    0.84320922  -5.31160381  -2.16616148
H   -0.22406126  -5.35084426  -2.23169077
H    1.12958346  -5.03213621  -1.17379725
H    1.25035371  -6.27374876  -2.39726655
C    1.38113331  -4.27257998  -3.16749417
N    1.78164225  -3.49897952  -3.91303187
C   -1.80503284   0.54424720  -3.59160602
H   -1.49807916   0.37599949  -2.58048173
H   -0.94584220   0.74762190  -4.19603076
H   -2.30397712  -0.32661692  -3.96248253
C   -2.76530384   1.74708605  -3.64316451
N   -3.48026926   2.64265426  -3.68155215
C    4.95486413  -3.35914901  -2.13435230
H    5.93422259  -3.42000085  -2.56103045
H    4.96756241  -2.67997280  -1.30763740
H    4.26500477  -3.00862075  -2.87335371
C    4.51992504  -4.75357503  -1.64649570
N    4.19609311  -5.79178858  -1.28326428
C    2.35706382  -5.31197475   2.06200990
H    2.93225116  -5.44307818   1.16933325
H    2.53707720  -6.13158392   2.72588873
H    2.64207898  -4.39749566   2.53886779
C    0.85992790  -5.25982550   1.70498822
N   -0.25475784  -5.22099801   1.43916934
C    2.78471016  -0.47141836   1.24072587
H    3.61567076   0.03442265   0.79515935
H    3.00225520  -0.67866022   2.26767478
H    1.91474800   0.14841268   1.17848114
C    2.52774057  -1.79327366   0.49355440
N    2.33641503  -2.77745501  -0.06274872
Cl  -0.63399112   1.24461477   0.18756974
