91
Energy:   -558.66435049
C    2.79162384   3.00764254  -0.69111258
H    3.60327846   2.60095581  -1.25743656
H    2.62605480   4.02338527  -0.98394820
H    1.90660952   2.43485113  -0.87430304
C    3.13550322   2.95544857   0.80909499
N    3.39153706   2.91658779   1.92606772
C    1.00161160   1.29732973   3.79351221
H    0.54811036   1.44560982   2.83578060
H    1.82132956   0.61621829   3.69838719
H    1.35788847   2.23407260   4.16831706
C   -0.03824095   0.71599803   4.76940162
N   -0.81245843   0.28317016   5.49599565
C    1.11178554   0.00054484  -3.21861559
H    0.52393204   0.48442378  -2.46682465
H    0.76318482  -1.00203849  -3.35353517
H    1.02280502   0.53620604  -4.14059641
C    2.58764764  -0.02386034  -2.77948525
N    3.68649405  -0.04203111  -2.45253275
C   -3.19186892   1.00865569   3.04535262
H   -4.17911736   0.99239922   2.63307063
H   -3.14892484   0.35816406   3.89383099
H   -2.49149027   0.67838515   2.30691495
C   -2.84079765   2.44361978   3.48035495
N   -2.57940912   3.51201577   3.80423395
C   -3.27869821   4.20726059   0.30455412
H   -2.56458476   3.50374618  -0.06962449
H   -2.88424156   4.68659364   1.17607169
H   -3.48190537   4.94253319  -0.44576591
C   -4.58174637   3.47166996   0.66865839
N   -5.55192496   2.92398931   0.93975057
C   -4.28615762   0.03184981  -0.54964277
H   -4.31373116  -0.25061388  -1.58131818
H   -3.50333521   0.74490234  -0.39587589
H   -5.22403216   0.46678491  -0.27374079
C   -4.02331272  -1.21385988   0.31679819
N   -3.82761274  -2.14134736   0.96190287
C   -0.34469954   4.58805199  -2.09498141
H    0.23233211   5.47008070  -1.91069897
H   -0.32224537   3.95978488  -1.22914347
H   -1.35626097   4.86219515  -2.31059237
C    0.24838237   3.82826242  -3.29605329
N    0.68995881   3.26256454  -4.19030590
C   -0.95667006  -2.41001122  -1.26133575
H   -0.05127082  -2.78826456  -1.68804034
H   -1.32578334  -3.10378676  -0.53516085
H   -0.76289462  -1.46933070  -0.78966815
C   -2.00741461  -2.22096746  -2.37119986
N   -2.78974169  -2.08021579  -3.19754414
C    0.20536524   4.58890154   2.24955468
H   -0.22633078   3.75031891   1.74426475
H   -0.55419572   5.10292815   2.80068342
H    0.96483920   4.24798042   2.92176831
C    0.82681111   5.54669286   1.21609408
N    1.28950581   6.25981203   0.44663568
C   -0.83829369  -2.10858209   2.50399124
H   -0.81619622  -1.32322853   1.77760866
H   -1.57161670  -1.88383591   3.25006471
H   -1.08904589  -3.03141870   2.02399643
C    0.54623759  -2.23417601   3.16648599
N    1.57708406  -2.32768640   3.65974345
C    0.55999820  -5.83764371  -1.40731736
H    0.37178688  -5.51376619  -2.40960476
H    0.35356604  -5.03639384  -0.72887540
H   -0.07051416  -6.67101922  -1.17745105
C    2.03545888  -6.25754909  -1.27205742
N    3.13400642  -6.57018773  -1.17135024
C   -2.37604501   1.31784035  -3.46218880
H   -1.95808736   0.96382567  -2.54301244
H   -1.58942274   1.50508473  -4.16294842
H   -3.03982285   0.57896158  -3.86012880
C   -3.15439712   2.62130032  -3.20380906
N   -3.73391565   3.59178552  -3.01143360
C    4.26052955  -3.57490367  -2.72667414
H    4.88238541  -4.21394739  -3.31812877
H    4.21185128  -3.95108008  -1.72616385
H    4.67150362  -2.58702729  -2.71669099
C    2.84408430  -3.53554904  -3.32977784
N    1.78947643  -3.50624774  -3.77881596
C    2.97981235  -5.25101585   2.26775900
H    3.15446269  -4.40489396   2.89900791
H    3.40482696  -5.06977304   1.30266174
H    3.43350115  -6.11826790   2.70012395
C    1.46376765  -5.48145878   2.12596849
N    0.33500347  -5.65303402   2.02039901
C    2.78733119  -0.52500389   0.89852661
H    3.09960568  -0.62737094   1.91681234
H    1.92283721   0.10379737   0.85206991
H    3.57783070  -0.08747413   0.32530997
C    2.44438550  -1.91239388   0.32482175
N    2.18904684  -2.94536879  -0.10232760
Cl  -0.62851543   1.31144222   0.09543624
