91
Energy:   -562.68701847
C    1.00948848   1.64536039  -3.23135373
H    1.05610186   0.89458605  -3.99231712
H    0.85794625   2.60300953  -3.68394864
H    0.19711586   1.43151293  -2.56861767
C    2.32971922   1.65539579  -2.43858006
N    3.31269101   1.66286760  -1.84832403
C    2.89461072   1.22049526   1.59204811
H    1.97164632   1.25860436   1.05206237
H    3.67457403   0.88316173   0.94184629
H    3.13359760   2.19670187   1.95920615
C    2.75646267   0.24614528   2.77659749
N    2.65360518  -0.47930257   3.65854835
C   -1.48478378  -1.16083567  -3.42890566
H   -1.32256484  -0.51425068  -4.26587223
H   -0.81506648  -1.99335370  -3.48627796
H   -1.30676830  -0.62172552  -2.52194931
C   -2.93836184  -1.66914762  -3.44706543
N   -4.02061678  -2.04760897  -3.46058620
C   -0.52474957   1.34730956   3.95972476
H    0.09457876   0.66134490   4.49896969
H   -0.86310009   0.88696883   3.05501241
H   -1.36844874   1.61463525   4.56106308
C    0.28514999   2.61238550   3.62024639
N    0.88815703   3.55429205   3.36748932
C   -2.35218894   4.08735739   1.52027812
H   -1.32753626   4.39533368   1.50854440
H   -2.94846939   4.81248673   1.00692039
H   -2.44529944   3.13940180   1.03282585
C   -2.83471605   3.96480481   2.97758675
N   -3.19397942   3.87355883   4.06261927
C   -4.03848138   0.60071177   2.70333235
H   -4.48089929   1.57194790   2.77992840
H   -3.18223205   0.64827982   2.06343121
H   -3.73942949   0.26736105   3.67510617
C   -5.06450223  -0.38583055   2.11544167
N   -5.82842140  -1.12035615   1.67773034
C   -2.23616942   3.69141203  -2.20274224
H   -1.74187138   4.57154747  -2.55761017
H   -1.63847793   3.22708944  -1.44639013
H   -3.18759374   3.95776672  -1.79195516
C   -2.43847859   2.70959897  -3.37180773
N   -2.58910697   1.97859453  -4.24223013
C   -3.05962177  -2.51424641   0.14655688
H   -3.91870936  -2.44326264  -0.48734373
H   -2.70437392  -1.53164290   0.37718297
H   -3.32508512  -3.01913645   1.05182720
C   -1.95239841  -3.30396169  -0.57594310
N   -1.12802030  -3.89194061  -1.11387718
C    1.40607421   4.12682599   0.06005834
H    1.27267639   4.85613044   0.83156351
H    2.41514598   3.77127036   0.07597805
H    0.73681899   3.30813511   0.22358749
C    1.10898499   4.76721111  -1.30860703
N    0.88778856   5.24400693  -2.32764061
C    0.03858709  -2.28753142   2.40642268
H    0.86341710  -2.51076871   3.05041083
H    0.22460026  -1.36631186   1.89490267
H   -0.07909608  -3.07496423   1.69158050
C   -1.24689795  -2.15878928   3.24460743
N   -2.20400000  -2.06293491   3.86867407
C    1.92560365  -5.34800642  -1.78134552
H    1.68564018  -6.37419403  -1.96643115
H    2.89479492  -5.13095115  -2.17940881
H    1.19785652  -4.72094034  -2.25258997
C    1.92347260  -5.08596663  -0.26380454
N    1.92188593  -4.89086609   0.86607369
C   -4.56942984   0.61159511  -1.31545346
H   -5.22050176  -0.16321137  -0.96806253
H   -3.55390627   0.34077010  -1.11479259
H   -4.70196765   0.74314021  -2.36903246
C   -4.90321301   1.92719855  -0.58787090
N   -5.15172975   2.90672511  -0.04615260
C    5.44027751  -1.02694822  -2.17705784
H    4.77104619  -0.78495989  -2.97610180
H    6.45031763  -0.94495572  -2.52056224
H    5.28412477  -0.34966358  -1.36354636
C    5.17451037  -2.46802462  -1.70348983
N    4.97663466  -3.54097150  -1.35089693
C    4.44326852  -3.16049420   2.22865980
H    3.40660869  -2.92143207   2.34305336
H    4.84669397  -3.45958369   3.17348384
H    4.54938148  -3.96057779   1.52616041
C    5.20193066  -1.92257520   1.71525129
N    5.76678910  -1.00088823   1.33299532
C    1.69347635  -1.58234941  -0.75612262
H    0.70837761  -1.90174029  -0.48691988
H    1.81503988  -0.54967386  -0.50372885
H    2.41549401  -2.16671475  -0.22498540
C    1.89715620  -1.76789721  -2.27127493
N    2.04880510  -1.90604597  -3.39937470
Cl  -0.87746003   0.81249592   0.10336156
