91
Energy:   -557.23265854
C    1.89999819   2.97475021  -1.80250283
H    2.61221084   2.51469933  -2.45519457
H    1.49619861   3.84676997  -2.27306261
H    1.10991723   2.28420015  -1.59319018
C    2.59324114   3.37569954  -0.48711169
N    3.10939202   3.67422455   0.49225681
C    1.43145213   2.18419190   3.14881378
H    2.32170471   2.77768798   3.13818707
H    0.61431499   2.76005045   2.76727359
H    1.57321673   1.31756911   2.53744904
C    1.12218495   1.74848356   4.59315171
N    0.89192148   1.42407890   5.66852695
C    0.64710788  -0.63945289  -2.91678637
H    0.13639358   0.08785150  -2.32088419
H   -0.05324039  -1.12715891  -3.56219649
H    1.39734313  -0.15468692  -3.50589427
C    1.31035594  -1.68199791  -1.99765532
N    1.80417427  -2.45822006  -1.31332047
C   -2.41396406   1.49594935   3.97387007
H   -3.45876303   1.27753831   4.04864915
H   -1.90821360   1.12001414   4.83861759
H   -2.01432615   1.03125852   3.09680048
C   -2.21331667   3.02017378   3.88397848
N   -2.06392556   4.15502816   3.81705011
C   -3.82860265   3.54368224   0.64347690
H   -3.36044041   4.35672043   1.15796033
H   -4.35721396   3.91769326  -0.20833582
H   -3.08210388   2.84750819   0.32257137
C   -4.81600312   2.83718769   1.59084471
N   -5.55116765   2.31117038   2.29620310
C   -4.21897505  -0.63924099   1.00152771
H   -3.53846970   0.15629097   0.78030030
H   -5.20153007  -0.23947377   1.14178063
H   -4.22983622  -1.33557447   0.18918491
C   -3.76861652  -1.35737988   2.28723908
N   -3.43330412  -1.89206692   3.24450964
C   -1.78316280   3.61420426  -2.49858289
H   -1.45069327   4.61519353  -2.67854033
H   -1.40692674   3.27759115  -1.55516510
H   -2.85281647   3.59067952  -2.48491927
C   -1.26366645   2.69185565  -3.61706247
N   -0.87687780   2.00512518  -4.44982136
C   -1.09343049  -2.84897699   0.51267257
H   -1.27944788  -1.81099395   0.69402560
H   -0.04150744  -3.03743948   0.56595379
H   -1.59880901  -3.43616312   1.25071327
C   -1.61232096  -3.22654311  -0.88725475
N   -1.99865851  -3.50765825  -1.92956427
C   -0.15639907   5.02802928   1.17232415
H   -0.84496720   5.57967434   1.77768508
H    0.79258786   4.98081119   1.66435399
H   -0.52942710   4.03663815   1.02102048
C    0.00567433   5.72889491  -0.18933645
N    0.12634534   6.25072123  -1.20315465
C   -0.03816410  -1.43041975   3.56737924
H   -0.61418546  -2.32993419   3.50434469
H   -0.34301323  -0.75674110   2.79399501
H   -0.19515165  -0.97249178   4.52160980
C    1.45557830  -1.76445962   3.39781803
N    2.56773742  -2.01316748   3.27157200
C    0.92290348  -5.41631479  -2.65389413
H    0.41573732  -5.28754441  -1.72056629
H    0.49235428  -6.24066862  -3.18301343
H    0.82418616  -4.52608745  -3.23925665
C    2.41459444  -5.69645697  -2.39316737
N    3.52522616  -5.90503556  -2.19904444
C   -3.01979520  -0.27812012  -2.54311389
H   -3.51609875  -1.22537381  -2.57907829
H   -2.28227087  -0.29108182  -1.76800813
H   -2.54577202  -0.08789732  -3.48333535
C   -4.04921369   0.83009556  -2.25370834
N   -4.81566255   1.65521251  -2.03823276
C    4.75832655  -2.85382987  -3.23377215
H    5.40318904  -3.69864519  -3.35762539
H    4.38737520  -2.83235076  -2.23036155
H    5.30531673  -1.95563417  -3.43111783
C    3.57684019  -2.96157176  -4.21564876
N    2.69716989  -3.04179050  -4.94670052
C    3.44014154  -4.35426612   1.03264455
H    3.33253791  -3.33407675   0.72844839
H    4.08199588  -4.86542423   0.34588442
H    3.86593085  -4.39094293   2.01359173
C    2.05839913  -5.03410460   1.04705021
N    1.02962909  -5.54027526   1.05777588
C    3.26240377   0.03303136   0.54430811
H    3.53405507  -0.90785706   0.97539364
H    2.19817188   0.08695315   0.44734410
H    3.60366780   0.82651496   1.17583145
C    3.91196340   0.16757730  -0.84550112
N    4.39559007   0.26775286  -1.88027726
Cl  -0.73630543   1.07856291   0.38099634
