91
Energy:   -558.41337971
C    2.65606316   1.41304929   0.01989768
H    2.97167125   1.36456886  -1.00134733
H    2.62840999   2.43474841   0.33654467
H    1.68001037   0.98446733   0.11229650
C    3.64641150   0.62917817   0.90100847
N    4.38377086   0.04555048   1.55703550
C    1.40474488   0.87799216   3.62925133
H    0.94502196   1.02215270   2.67385992
H    2.45771766   1.04986183   3.54796030
H    0.98470386   1.56445004   4.33440396
C    1.15545318  -0.56484388   4.10640731
N    0.96984418  -1.63910089   4.46167162
C   -0.29171404  -1.12631035  -2.36712355
H   -0.08299522  -0.98189448  -3.40658528
H   -0.71212969  -0.23056678  -1.95994640
H   -0.98705499  -1.93130551  -2.25143933
C    1.01374466  -1.46477172  -1.62360388
N    1.98571799  -1.71677159  -1.07001969
C   -4.75395177   1.67929318   1.97963811
H   -5.01956541   0.76855297   2.47451369
H   -5.25351756   2.49995816   2.45063928
H   -3.69546793   1.82317018   2.04136714
C   -5.17609159   1.60185870   0.50065134
N   -5.49039388   1.54420521  -0.60052154
C   -2.71605671   4.41622818  -0.14516965
H   -1.68045818   4.64503375  -0.00345202
H   -3.08100704   4.93414963  -1.00741540
H   -2.83229757   3.36200611  -0.28660152
C   -3.51399024   4.85879200   1.09541059
N   -4.10808803   5.18830087   2.01907897
C   -3.78400930  -1.60264079  -0.67591558
H   -2.92719048  -0.96180220  -0.68527518
H   -4.57331588  -1.15107509  -1.23981507
H   -3.52870607  -2.54587792  -1.11183193
C   -4.24862308  -1.81733036   0.77654523
N   -4.59454916  -1.97717651   1.85796833
C    0.49709574   3.51365941  -1.85704031
H    1.46923013   3.91147201  -1.65307945
H    0.11459232   3.03836881  -0.97801297
H   -0.15920817   4.30717411  -2.14772690
C    0.59305509   2.48309997  -2.99736442
N    0.66450118   1.71580163  -3.84638754
C   -0.61320214  -2.51925146   1.53776890
H    0.14484739  -1.82119083   1.24971952
H   -0.28708815  -3.06494430   2.39844775
H   -1.51433706  -1.99134368   1.77050978
C   -0.87662697  -3.49834149   0.37863557
N   -1.07275874  -4.22731852  -0.48439187
C   -0.79177623   3.86245035   3.15325214
H   -0.36204061   3.63387474   4.10613233
H   -1.31408506   3.00526397   2.78267950
H   -1.47513565   4.67926294   3.25686767
C    0.32498872   4.24953713   2.16603389
N    1.15647099   4.53774083   1.43100502
C   -2.51793760  -0.45150607   4.11430171
H   -2.44258907  -0.19661961   3.07783865
H   -3.54139064  -0.64263859   4.36110392
H   -1.93446164  -1.32688736   4.30965393
C   -1.99314412   0.71663270   4.96966341
N   -1.60241152   1.58636511   5.60651907
C    1.88435358  -5.09156418  -2.24087215
H    1.14060487  -5.62474311  -1.68638297
H    2.35985338  -4.37591197  -1.60318810
H    2.61483870  -5.78006345  -2.61135742
C    1.21907781  -4.36326372  -3.42349068
N    0.72374976  -3.82101093  -4.30400394
C   -2.99990687   1.46801446  -2.93356201
H   -2.39108392   0.85491427  -3.56470617
H   -4.02531764   1.18130124  -3.03952123
H   -2.69773104   1.34190044  -1.91489419
C   -2.83523882   2.94458567  -3.33880502
N   -2.71263597   4.04396005  -3.64052687
C    2.89637358  -0.91002151  -4.63756375
H    3.42313591  -1.17180934  -5.53136952
H    1.99877904  -0.38654767  -4.89290326
H    2.64899700  -1.79906406  -4.09598525
C    3.78613367  -0.00709548  -3.76312019
N    4.44860051   0.66517400  -3.11205721
C    3.03428432  -3.01554140   2.09773901
H    2.31510915  -3.44824984   2.76140357
H    2.55518379  -2.28520204   1.47970488
H    3.80927659  -2.54726426   2.66782900
C    3.64349716  -4.11787845   1.21156027
N    4.09708381  -4.93861849   0.55175992
C    5.46909433  -2.10212327  -1.11840906
H    6.12665125  -2.68021313  -0.50332273
H    4.59109950  -1.84851745  -0.56189468
H    5.96595269  -1.20660662  -1.42837807
C    5.07125480  -2.92398484  -2.35851683
N    4.77504519  -3.53589813  -3.28183344
Cl  -1.23481599   0.98458126   0.67045220
