25
Energy:   -374.11172857
Na   0.10338931  -1.13482846  -0.26846523
O   -0.65624172  -2.59941796   1.42894291
H   -1.30530354  -3.30281576   1.44243854
H   -0.33060319  -2.55607176   2.32800492
O    1.95576996  -2.36166252  -1.03878889
H    2.57827344  -2.07042758  -1.70504971
H    2.14180313  -3.29402077  -0.92774116
C   -1.99199745  -0.32489313  -4.74429839
H   -2.06764230  -1.12703792  -5.44838771
H   -1.46795741   0.49388557  -5.19138068
H   -2.97305098  -0.00720371  -4.45880498
C   -1.22536626  -0.80606966  -3.49836671
N   -0.65457449  -1.16432746  -2.57071394
C   -1.56671096   2.84744854   1.87133102
H   -2.53327289   3.28627573   2.00582602
H   -0.88328386   3.59126732   1.51840025
H   -1.21882221   2.45782870   2.80517731
C   -1.65990834   1.70608171   0.84167282
N   -1.72929803   0.85628223   0.07504549
C    2.55834127   2.18235635   2.77598257
H    2.88836175   2.92010909   2.07476395
H    3.38898094   1.85289952   3.36453591
H    1.81355791   2.60684031   3.41630296
C    1.95978852   0.98377373   2.01655232
N    1.51413879   0.09137448   1.45112199
