25
Energy:   -373.64521143
Na  -0.76564122  -0.16322684   0.35455448
O    0.70706493   0.42860870   2.14719463
H    1.63926148   0.63747192   2.20734109
H    0.60929326  -0.37976226   2.65039333
O   -3.03021997  -0.74082195   0.46663184
H   -3.74160159  -0.18567004   0.78596616
H   -3.44314787  -1.58827475   0.30066149
C   -0.16317898   4.83676594   1.27004850
H   -0.42673612   4.93254974   2.30264875
H   -0.54331611   5.67580161   0.72560933
H    0.90210411   4.80319368   1.17547608
C   -0.76995281   3.53964136   0.70357401
N   -1.22172351   2.57387315   0.28180801
C    1.55721040   0.66161220  -4.04697479
H    1.26702784  -0.03762904  -4.80312025
H    2.62481357   0.69718213  -3.98486722
H    1.18188008   1.63223569  -4.29580460
C    0.97849994   0.21982973  -2.68994773
N    0.54762369  -0.10909740  -1.67957940
C    0.92464806  -4.99311232   0.53175377
H    1.99372574  -4.98060621   0.57437653
H    0.60972408  -5.41851964  -0.39816590
H    0.54230734  -5.58043655   1.34031107
C    0.38951438  -3.55353284   0.64508015
N   -0.00891696  -2.48170049   0.72945679
