25
Energy:   -385.14537828
Na  -0.35616766  -0.60694700  -0.62575265
O   -1.90591293  -0.65918000   1.06974339
H   -2.83999805  -0.85872222   1.13219135
H   -1.60506992  -0.63200032   1.97803112
O    1.39575974  -1.54298180   0.55288500
H    2.10741871  -2.17892784   0.47976877
H    1.41348819  -1.26729218   1.46935256
C    1.41800621   3.86147722  -2.26049420
H    2.25868864   4.16263774  -1.67104057
H    0.66897382   4.62495816  -2.22973024
H    1.72892777   3.70744036  -3.27266984
C    0.83860304   2.55088499  -1.69636659
N    0.40721104   1.57508949  -1.27634795
C    1.80603464   0.40781148   5.62770229
H    0.96223654   0.49145717   6.28031883
H    2.27782184   1.36324890   5.53046415
H    2.50329306  -0.29452445   6.03446269
C    1.33792049  -0.07685361   4.24293917
N    0.98938823  -0.43770879   3.21192008
C   -2.73068383  -2.13075568  -4.84756675
H   -2.01499089  -2.51236306  -5.54546331
H   -3.22642622  -1.28312042  -5.27259974
H   -3.45072746  -2.88999735  -4.62398602
C   -2.01092235  -1.70874626  -3.55317444
N   -1.47502721  -1.39454106  -2.58944052
