25
Energy:   -374.09860220
Na  -0.05324905   0.41913277  -0.62534033
O    2.15263762   0.80232573   0.20764714
H    2.11507417   1.43065262   0.92877553
H    3.07850437   0.76807291  -0.03283020
O   -0.50146768  -0.43905876  -2.73300804
H   -0.88566461  -0.17960517  -3.57044962
H   -0.04094830  -1.25636190  -2.92319040
C   -0.94529504   5.52356395  -0.55194704
H   -1.92580660   5.75889797  -0.19401526
H   -0.83704393   5.87904427  -1.55534853
H   -0.21506147   5.99309097   0.07351471
C   -0.74088214   3.99746234  -0.52315050
N   -0.58868744   2.86121033  -0.50171017
C   -3.34551535  -2.71797734   1.66685003
H   -2.71761011  -3.51714138   2.00147226
H   -4.01251722  -3.08027626   0.91269680
H   -3.91188998  -2.33986445   2.49216785
C   -2.47408778  -1.59053683   1.08281930
N   -1.82527035  -0.75110612   0.64798188
C    3.00046642  -3.21438442   1.28607493
H    3.60612940  -2.45920894   1.74190663
H    3.62232242  -3.87868912   0.72314201
H    2.48569303  -3.76519768   2.04535893
C    1.97464377  -2.55240989   0.34741759
N    1.21087217  -2.05953976  -0.35145546
