25
Energy:   -373.53856000
Na  -0.30723446   0.88587747   0.97690968
O   -1.35036965   2.44692745   2.37913210
H   -2.30416858   2.41984970   2.45506792
H   -1.09223352   3.22474267   2.87370370
O    1.03200032  -0.41314388   2.38144245
H    1.92667289  -0.28557009   2.69690683
H    0.75794622  -1.24528817   2.76700969
C   -0.20217393  -4.38300121  -0.25686457
H   -0.60719974  -4.70725875  -1.19265906
H   -0.84884578  -4.69162648   0.53778318
H    0.76598025  -4.81684803  -0.11774769
C   -0.08193358  -2.84770524  -0.25394309
N    0.00759083  -1.70460760  -0.25176792
C    4.00402867   2.64163072  -1.15034287
H    3.96469683   2.49884698  -2.21004377
H    4.85967637   2.13610005  -0.75385222
H    4.07527844   3.68704635  -0.93371250
C    2.72659537   2.07010079  -0.50760055
N    1.77548821   1.64457078  -0.02904967
C   -3.34763819  -0.29098182  -2.82771626
H   -3.59454483  -1.32208837  -2.68364480
H   -2.65654790  -0.19977288  -3.63948853
H   -4.23655576   0.26060569  -3.05238461
C   -2.70755267   0.26789543  -1.54336944
N   -2.23097990   0.68400494  -0.58711486
