25
Energy:   -395.59358333
Na   0.31457469  -0.93484548  -0.21283355
O   -0.80263749  -2.95640004   0.04979063
H   -1.68612970  -3.09434970   0.39132139
H   -0.48594171  -3.83532932  -0.15858150
O    2.23464786  -1.95040046  -1.07760017
H    3.03336823  -2.17551981  -0.60052691
H    2.47199804  -2.04315973  -2.00025528
C   -3.55405372   1.83044228   1.60265294
H   -3.23878151   2.85198551   1.55845966
H   -3.76999756   1.56738731   2.61708353
H   -4.43304567   1.70232688   1.00611401
C   -2.43191899   0.92317498   1.06480566
N   -1.59643868   0.24767324   0.66435391
C    2.75578178   0.94984429   3.82194094
H    2.28791332   0.55980610   4.70163947
H    2.64166214   2.01349387   3.79902040
H    3.79686012   0.70297087   3.83235760
C    2.09503385   0.33565948   2.57382669
N    1.60307699  -0.12162902   1.64454889
C   -0.57084630   1.70479548  -4.46014386
H    0.05461898   2.57256995  -4.48585045
H   -1.59678061   2.00572846  -4.41775017
H   -0.40664809   1.12055570  -5.34139407
C   -0.23079235   0.86359744  -3.21581707
N    0.02239327   0.23728726  -2.28935921
