25
Energy:   -393.90728642
Na  -0.09986620   0.07982655  -0.05462092
O    1.42410084   1.71388672  -0.73173597
H    2.12818096   2.07160640  -0.19086663
H    1.45117458   2.23335484  -1.53526055
O   -1.68348556  -1.50936363   0.59357591
H   -1.50465509  -2.44354863   0.70104637
H   -2.62665026  -1.42774007   0.73503190
C   -3.67550163   2.32171312  -2.91234629
H   -3.25253748   2.62144352  -3.84838218
H   -4.05830943   3.18099822  -2.40245769
H   -4.47026816   1.62674184  -3.08630077
C   -2.58942512   1.65383513  -2.04864679
N   -1.78079179   1.15656961  -1.40558326
C    3.10321697  -3.43666699  -1.82917872
H    3.49897837  -4.04289511  -1.04129512
H    3.89793286  -2.88957422  -2.29179654
H    2.62986277  -4.06206461  -2.55699237
C    2.07109395  -2.45144947  -1.24980965
N    1.30263144  -1.71791025  -0.81844305
C    0.81747620   0.91718590   4.86998522
H    0.65354588   1.94327865   5.12525117
H    1.81548202   0.63834914   5.13669394
H    0.12133056   0.30197758   5.40083272
C    0.61895995   0.72713563   3.35470565
N    0.47115559   0.58563457   2.22651113
