25
Energy:   -373.56968158
Na  -0.35403341   1.69584198  -0.03342298
O   -2.11819463   2.86213175  -1.15119395
H   -2.78608377   2.36672342  -1.62524725
H   -2.35929556   3.77877444  -1.28486662
O   -0.24241811   3.38040355   1.72402604
H   -0.87295079   3.44768365   2.44105726
H    0.52105974   3.87061073   2.02903479
C    2.30065635  -2.13871706   2.68217517
H    1.83698061  -2.15533677   3.64634775
H    3.28856320  -1.73683598   2.76837701
H    2.35331651  -3.13463256   2.29451768
C    1.47036270  -1.25983005   1.72835649
N    0.85217134  -0.60545871   1.01819513
C   -2.86875512  -2.67805046  -0.53991523
H   -2.06567075  -3.34898047  -0.31673681
H   -3.30265271  -2.94188696  -1.48173383
H   -3.61244258  -2.74446373   0.22651632
C   -2.32975312  -1.23709744  -0.60869922
N   -1.92844163  -0.16424242  -0.65991202
C    2.69621025  -1.03497688  -2.41632707
H    2.98429714  -0.90206537  -3.43820801
H    2.04449476  -1.87983832  -2.33648251
H    3.56820248  -1.19940408  -1.81842043
C    1.96454536   0.22635330  -1.92103661
N    1.41978758   1.16547096  -1.55227035
