25
Energy:   -381.85854298
Na   0.85266203   0.17881615   0.70382262
O    2.20924885   2.01226857   1.34530841
H    1.94424911   2.86294907   0.99552325
H    2.93471707   2.21155768   1.93709517
O   -0.15186004  -0.50434157   2.73356825
H    0.34575627  -0.84092654   3.47876649
H   -1.05157091  -0.44194431   3.05428429
C   -3.67085359  -0.99083740  -1.23072150
H   -4.17535813  -1.62415666  -0.53123450
H   -3.73337665  -1.41919181  -2.20924205
H   -4.13142779  -0.02504275  -1.23406618
C   -2.19187252  -0.85284304  -0.82430722
N   -1.09070389  -0.75009997  -0.52171331
C   -2.34393476   3.18899355  -1.57671567
H   -2.92690101   3.89615395  -1.02447051
H   -2.96505569   2.37050854  -1.87536290
H   -1.93679635   3.66319035  -2.44520563
C   -1.19692226   2.66672796  -0.69172925
N   -0.34291932   2.27787748  -0.03281663
C    3.85766547  -3.66030275  -0.90747581
H    4.34106352  -3.38164108  -1.82047865
H    3.17741812  -4.46463301  -1.09513363
H    4.59277931  -3.97356167  -0.19587509
C    3.08296554  -2.45287210  -0.34751934
N    2.50616623  -1.55388510   0.06939371
