25
Energy:   -395.59343883
Na   0.46542566   0.69143390   0.56802163
O    0.36311761   1.02176229   2.86684224
H    0.81488954   1.68666712   3.38649167
H   -0.14269203   0.52022396   3.50625428
O    1.94822916   2.46974235   0.24337523
H    2.90012310   2.41870213   0.15663038
H    1.72970138   3.36048965  -0.03057130
C   -2.73499618  -3.26596034   0.66089230
H   -3.69315467  -2.97575795   1.03853641
H   -2.34296430  -4.06300897   1.25748560
H   -2.83568098  -3.59502308  -0.35226089
C   -1.77528452  -2.06287412   0.71690201
N   -1.06073557  -1.16712175   0.75860379
C   -3.16593330   2.80022072  -2.28827125
H   -3.81669450   3.38272296  -1.67012791
H   -3.71590888   1.99176752  -2.72281626
H   -2.76516732   3.41722974  -3.06517896
C   -2.01457131   2.23738845  -1.43434772
N   -1.15732997   1.81833424  -0.79856284
C    3.75138461  -2.76418550  -1.17943961
H    4.38092882  -3.10384528  -0.38369750
H    4.35656546  -2.37999270  -1.97382687
H    3.16307461  -3.58098499  -1.54224675
C    2.82102849  -1.65269708  -0.65921755
N    2.12833607  -0.82514343  -0.27188859
