25
Energy:   -380.26392944
Na   0.48462903  -0.27817023   1.05732958
O    0.91128715  -2.46521775   1.69564099
H    0.50490313  -3.21164448   2.13601697
H    1.62807958  -2.84673682   1.18880407
O    1.68554291   0.50734916   2.88267893
H    1.79236817   0.24851238   3.79800605
H    2.31268815   1.22000761   2.76004683
C   -3.43696163   3.12705148   1.40938225
H   -3.49496924   3.72704126   0.52533046
H   -3.13616197   3.73710765   2.23536659
H   -4.39597656   2.69847697   1.61313046
C   -2.40613423   2.00231479   1.19971046
N   -1.63863638   1.16489720   1.04360029
C    3.92304037   0.46376312  -2.68712152
H    3.83655557   1.48428709  -2.99688172
H    3.69626061  -0.17962429  -3.51145317
H    4.92185865   0.27603977  -2.35242600
C    2.93635377   0.19114920  -1.53658634
N    2.20172074  -0.01182425  -0.67996061
C   -2.87823580  -1.71352023  -2.77561419
H   -2.48836973  -1.44680106  -3.73570040
H   -3.73319550  -1.10835429  -2.55717160
H   -3.16309747  -2.74489351  -2.78031252
C   -1.79885884  -1.48397610  -1.70143783
N   -0.99521363  -1.31307006  -0.90166469
