25
Energy:   -373.02496885
Na   0.30476902  -0.24277308   0.59271485
O   -2.25393977  -0.47099767   1.75269168
H   -3.02146676  -0.00613659   2.08591584
H   -2.60192211  -1.29445558   1.41055545
O    1.98041801  -1.53191738   1.55908441
H    2.72053160  -1.27231757   2.10778439
H    2.10097622  -2.47160590   1.42239849
C    0.42617087   2.23721589  -3.81986323
H    1.33854651   1.93033635  -4.28708461
H    0.46043777   3.28914284  -3.62705620
H   -0.39705333   2.02002785  -4.46796073
C    0.24854039   1.47749162  -2.49213342
N    0.11628643   0.91184236  -1.50357823
C    1.22486405   3.69529007   3.10422180
H    2.12703136   4.27054792   3.11274925
H    1.01938464   3.33948065   4.09218787
H    0.41407047   4.30838286   2.77011089
C    1.38909120   2.49705093   2.15088428
N    1.51136578   1.60490743   1.44108117
C   -1.64800893  -4.06564899  -2.11849116
H   -2.50887655  -3.69987295  -2.63812085
H   -1.91571438  -4.93192384  -1.55033559
H   -0.88759116  -4.32385652  -2.82559284
C   -1.11813957  -2.97367706  -1.17063264
N   -0.72362774  -2.16065433  -0.46490889
