25
Energy:   -377.05278326
Na   0.17706352   0.61364717   0.28655553
O    0.41059042   2.65724454   1.28285148
H    1.01090513   3.15387417   0.72678214
H    0.38201695   3.14851521   2.10386825
O    1.37372080   2.40621250  -1.37780856
H    0.88242527   2.31167689  -2.19384996
H    2.24635619   2.68620454  -1.65411235
C    3.89668905  -2.11300313   2.31585465
H    3.72395670  -3.16735877   2.25756325
H    3.89956115  -1.80821951   3.34152409
H    4.84250801  -1.88147343   1.87232385
C    2.77988656  -1.36740808   1.56190490
N    1.94837634  -0.81227868   1.00055504
C   -1.52294032  -0.63651971  -4.39764987
H   -2.52944233  -0.27349183  -4.38960886
H   -1.51905974  -1.67095466  -4.67119761
H   -0.94798582  -0.07800033  -5.10643935
C   -0.90741855  -0.47404553  -2.99538916
N   -0.44913462  -0.35307611  -1.95134233
C   -4.04389620  -1.47847935   2.21114805
H   -4.47785889  -0.84581088   2.95700808
H   -3.82116733  -2.43351384   2.63916682
H   -4.73398255  -1.60208790   1.40281591
C   -2.74666662  -0.83660819   1.68503320
N   -1.78082024  -0.35870594   1.29331678
