25
Energy:   -395.59356295
Na   0.48274009  -0.88636064   0.01904469
O   -0.06786937  -3.15097098  -0.16681918
H   -0.20486742  -3.64684513  -0.97401941
H   -0.39929306  -3.72298985   0.52541244
O    2.74952888  -1.32176902   0.29494859
H    3.45442466  -0.68650586   0.42062476
H    3.18796329  -2.17254735   0.30848978
C    1.06993027   4.15937499   0.34583375
H    1.70803018   4.52301384  -0.43230215
H    1.47280621   4.43834991   1.29702409
H    0.09379058   4.58304838   0.23380138
C    0.97661452   2.62471584   0.25800741
N    0.90713670   1.48209235   0.19261671
C   -2.32107784  -0.23690155   4.20351882
H   -2.60956104   0.79340739   4.21539819
H   -1.73325991  -0.45272563   5.07115305
H   -3.19634072  -0.85238020   4.20355000
C   -1.49217032  -0.52332223   2.93762960
N   -0.87501101  -0.73657545   1.99511753
C   -1.15883644   0.21553422  -4.65856900
H   -0.34882314   0.67000546  -5.18982651
H   -1.96133041   0.91690309  -4.56378383
H   -1.49903862  -0.64530499  -5.19533471
C   -0.68002096  -0.20904731  -3.25783124
N   -0.32352107  -0.52516755  -2.21491831
