21
Energy:   -232.13360228
O   -0.48273038   2.00196167   0.63889907
H   -0.46800914   2.70552834   1.28775119
H   -0.61842174   1.20526338   1.15182357
O    1.84434970   0.87077947  -0.42063213
H    1.44929084   0.39097297  -1.14860608
H    1.13854141   1.42472769  -0.08715368
O   -0.63993353  -0.39085322   1.97846306
H    0.27865636  -0.63735243   1.87046952
H   -0.84716785  -0.62729828   2.88255349
O    1.81966677  -1.20627557   1.33517819
H    1.51477398  -1.90427774   0.75546688
H    2.03181952  -0.48143226   0.74710912
O    0.29079364  -0.56524493  -2.13951698
H    0.00909051  -1.24714407  -1.52969015
H   -0.43557226   0.05796316  -2.15488240
O   -1.62877560   1.35898716  -1.79203133
H   -1.65042713   2.14489210  -2.33803176
H   -1.30457997   1.66428119  -0.94472702
O   -0.54209827  -2.24976166  -0.11707493
H   -1.32334025  -2.78317227  -0.26324589
H   -0.79702189  -1.63403136   0.57003640
