21
Energy:   -231.92435831
O   -1.38746605   0.93553298  -1.15562565
H   -2.24166804   1.10396530  -1.55337098
H   -1.55018562   0.23308304  -0.52608750
O    1.03742076  -0.09545984  -1.95918627
H    1.18646373   0.05303046  -2.89297890
H    0.19711046   0.32652935  -1.78020145
O    0.16967754   0.30325641   2.20555914
H    0.03326583   1.19698351   1.89111430
H    0.98760672   0.02588021   1.79290172
O    2.19162652  -0.62805200   0.61662645
H    1.80828678  -1.49318685   0.47232054
H    2.10406489  -0.18311878  -0.22634404
O    0.45779222  -2.46302076  -0.54873823
H   -0.31516676  -2.12043998  -0.09995692
H    0.68143017  -1.78866734  -1.19019390
O   -0.36362483   2.60763293   0.80127779
H   -0.73668509   2.13728211   0.05573906
H    0.23583537   3.24242438   0.40895249
O   -1.58322154  -1.05303145   0.71597854
H   -2.20656587  -1.51363434   1.27768902
H   -0.99115296  -0.61230982   1.32544641
