21
Energy:   -242.78784608
O    0.72572974   1.10363021  -0.62441712
H    0.99789073   0.57244095   0.12391315
H   -0.12848447   0.74968951  -0.87195685
O   -0.61572695   2.73689565   1.10256993
H   -0.05340744   2.31544660   0.45263970
H   -0.68143159   3.64583918   0.80976215
O    1.89762241  -0.78750189  -2.20550410
H    2.73737888  -0.51942598  -2.57856741
H    1.57247072  -0.00538058  -1.75964036
O   -1.60160399   0.32445714   1.89101979
H   -2.18957216   0.38694919   2.64376146
H   -1.33382598   1.22739435   1.72004852
O    0.25182085  -2.37708117  -0.72968692
H    0.86638087  -1.93823555  -1.31787257
H    0.27692234  -3.29551788  -0.99815623
O    0.94885664  -0.69892344   1.39598215
H    0.09501569  -0.45103614   1.75057962
H    0.76167505  -1.43248866   0.81025443
O   -1.59783799  -0.28798304  -0.83761449
H   -1.80483066  -0.15384515   0.08726004
H   -1.12988120  -1.12269156  -0.86019712
