21
Energy:   -237.89027362
O   -2.12865410   0.95833323  -0.77900876
H   -3.08259517   0.88330441  -0.80348268
H   -1.88482273   0.63675607   0.08895796
O    1.25724343   0.76120355   0.25926613
H    1.02104457   1.57323612  -0.18911433
H    0.51760092   0.58409223   0.84046522
O   -1.06553888  -0.06890099   1.54916514
H   -1.18334013  -0.12562783   2.49739337
H   -0.81670692  -0.95458945   1.28483495
O    2.45217392  -1.57797016   1.12749119
H    2.23324483  -0.69133630   0.84081664
H    3.33796263  -1.72549817   0.79606141
O   -0.09167009  -0.77675376  -1.63623027
H   -0.89782155  -0.26302107  -1.58693139
H    0.55023519  -0.26373311  -1.14531350
O   -0.02781974   2.74294714  -1.13356933
H    0.00854293   3.03443468  -2.04458229
H   -0.84671904   2.25124183  -1.07142704
O   -0.13104438  -2.39046513   0.58910438
H   -0.15602411  -2.06882807  -0.31209342
H    0.79017137  -2.32682671   0.84118280
