21
Energy:   -236.63472012
O   -2.51383356   1.36842339  -0.04547827
H   -3.39363966   1.58449741  -0.35448490
H   -2.09923038   0.93045109  -0.78879268
O    1.21826827   1.25126106  -1.01019043
H    1.73971361   0.46881575  -0.83100915
H    0.80088346   1.45817812  -0.17400439
O    0.39951166  -1.08666208   1.78523309
H    0.15775880  -0.16299540   1.71720909
H    0.07962631  -1.35566777   2.64636092
O    2.35408205  -1.14746614  -0.18242810
H    1.81376506  -1.18656049   0.60672400
H    3.22126347  -1.43200921   0.10612600
O   -1.10269787   0.15121123  -1.97959192
H   -0.93643225  -0.74102601  -1.67545330
H   -0.27159620   0.60790316  -1.84945992
O   -0.21718884   1.55065032   1.36444144
H   -1.06846554   1.52471049   0.92753533
H   -0.18360731   2.41541570   1.77344629
O   -0.26878596  -2.16060720  -0.76221812
H    0.65884069  -2.07857141  -0.98360190
H   -0.31689603  -1.91998609   0.16299470
