21
Energy:   -232.44273994
O   -1.80978995   0.83121891   1.10246322
H   -2.72163565   1.11515204   1.16689333
H   -1.82801973   0.10508872   0.47905768
O    2.12164192   0.05045949  -1.02664275
H    1.70639137   0.82642494  -0.65024344
H    1.82432238  -0.67259061  -0.47434619
O    0.58761921   0.23793123   2.36187970
H   -0.31198771   0.46974722   2.13122720
H    1.10122259   1.01263560   2.13323904
O    0.92164487  -1.81081958   0.64604774
H    1.45502541  -2.50344649   1.03592595
H    0.84801900  -1.14887378   1.33353507
O   -0.17282205   0.44860669  -2.51926407
H    0.73081377   0.21376896  -2.30825364
H   -0.70489233  -0.16000154  -2.00669302
O    0.28500138   2.01021328  -0.29733853
H   -0.47852219   1.77986251   0.23200269
H    0.05095029   1.74163747  -1.18577478
O   -1.42356922  -1.24351023  -0.67221075
H   -1.84025012  -2.03795313  -1.00608100
H   -0.61950501  -1.55174236  -0.25423283
