21
Energy:   -233.91760858
O   -0.13688224   1.24213561   1.64855606
H   -0.17655957   1.06154134   2.58772764
H    0.56858994   0.68137072   1.32593617
O    0.67959404   0.97856658  -1.74264667
H    0.65485347   1.86437450  -1.38075707
H    1.17584458   0.47081618  -1.10065229
O   -1.82453996  -2.34920079  -0.28591659
H   -1.82003263  -1.39737312  -0.38708786
H   -2.69286506  -2.61828886  -0.58564143
O    1.77876609  -0.33310883   0.46776612
H    1.46063440  -1.23300941   0.39563422
H    2.72904934  -0.41982183   0.54309511
O   -1.66732554   0.33802198  -0.49955026
H   -1.34125815   0.66066401   0.34057712
H   -0.96363009   0.52936113  -1.11957760
O    0.30975084   3.24243877  -0.22595317
H    0.14721852   2.67788442   0.52975411
H   -0.52667737   3.68080294  -0.38233908
O    0.80173148  -2.84307699   0.23004716
H    1.01226450  -3.66184060  -0.21887806
H   -0.13636067  -2.72284852   0.08253414
