21
Energy:   -238.23831473
O   -1.79904846  -0.25181329  -1.26171096
H   -1.67501925   0.46839723  -0.64353186
H   -1.49271427  -1.02719308  -0.79141596
O    1.42972727   1.33979199  -0.62213888
H    1.17949672   1.02907198  -1.49223634
H    1.75366148   0.55929193  -0.17256337
O   -0.35205541  -0.23688778   2.41692943
H   -0.76873868  -0.05765918   3.25983156
H   -0.62494962   0.48855633   1.85524318
O    1.91338348  -0.89371957   0.93846700
H    2.68101069  -1.14368003   1.45276272
H    1.24898524  -0.67242524   1.59102784
O    0.29113995   0.29345847  -2.88511997
H   -0.50217591   0.06078022  -2.40268591
H    0.10048519   0.05162339  -3.79143030
O   -0.95003009   1.68845016   0.55772473
H   -1.22892787   2.59875650   0.45877902
H   -0.09228036   1.65287893   0.13436680
O   -0.61757701  -2.13132457   0.33676760
H    0.32098139  -2.03169911   0.17734756
H   -0.76923399  -1.67978715   1.16703621
