21
Energy:   -238.77921526
O   -1.21034244   1.30243449   0.34822019
H   -1.23025637   1.20830419  -0.60413204
H   -0.31097069   1.08376053   0.59223660
O    1.30351560   0.11210390   0.63885511
H    1.19243813  -0.13578897   1.55670193
H    0.94087831  -0.62391779   0.14590672
O   -0.11455300  -1.68997753  -0.92941100
H    0.15071250  -2.39674951  -1.51791709
H   -0.38421935  -0.98051667  -1.51265811
O   -1.72381148  -1.20431496   1.34153094
H   -1.29941969  -1.62579464   0.59421686
H   -1.79302622  -0.28330518   1.09017034
O    1.81192791   1.58796627  -1.62339653
H    2.37753753   2.34764088  -1.48478879
H    1.81549872   1.12960051  -0.78308711
O   -0.63682431   0.63889548  -2.32662365
H   -0.96911594   1.04006152  -3.12966781
H    0.22787268   1.03031267  -2.20283535
O    0.35409877  -0.79694506   3.04373364
H    0.04901561  -0.69204768   3.94492877
H   -0.43301303  -1.02450815   2.54885798
