16
Energy:   -489.87311485
O    0.41461711   2.88824815  -0.98268704
H    0.73113994   2.29070385  -0.30520202
H   -0.17932847   2.35690679  -1.51291045
O   -1.28830990   0.72867748  -1.42755164
H   -0.44794614   0.29565344  -1.27751569
H   -1.55308536   1.04464444  -0.56367046
O   -1.14920917  -0.69953045   1.57402651
H   -0.92570223  -1.49494811   1.09071786
H   -0.44887842  -0.08340334   1.35918689
O    0.21810186  -2.74187666   0.27942740
H    0.72235502  -2.65593179   1.08848492
H    0.42469648  -1.95020147  -0.21736320
C    1.52684890   0.15397663   0.21415578
O    1.96730477  -0.76195775   1.13286206
O    0.65313722   1.02062138   0.81636302
O    0.89163024  -0.49700001  -0.81078660
