16
Energy:   -490.06713004
O   -0.92871844  -0.01257325   1.78073331
H   -1.62977129   0.13713784   1.14642791
H   -0.25912385  -0.48937911   1.29029359
O    0.77879989   1.86149397  -0.18264786
H    0.43514295   1.10497382  -0.65784152
H    0.87418943   1.55531228   0.71923099
O    2.99239975   0.23734712  -0.55899391
H    2.48509858   1.04656829  -0.62254282
H    2.34417502  -0.43691890  -0.35551939
O   -2.70203007  -0.26062861  -0.32824556
H   -1.84477250  -0.17308831  -0.74499248
H   -2.69941663  -1.14289225   0.04301700
C    0.22892962  -1.39012879  -0.77338303
O   -0.78552509  -2.25981768  -0.47092432
O    0.94294668  -1.10917964   0.36167028
O   -0.29911956  -0.23149698  -1.27985770
