16
Energy:   -489.81219133
O   -1.28145336  -1.23500064  -2.18754037
H   -0.84882697  -2.06646969  -1.99330988
H   -1.32303714  -0.78344324  -1.34457029
O   -0.21461888   2.11648364   0.36167965
H    0.71679921   1.89632615   0.37660881
H   -0.66065592   1.27035853   0.32486810
O    1.31035688  -0.41556482  -1.67574810
H    0.43949898  -0.55253874  -2.04867774
H    1.18991269  -0.53691587  -0.73394188
O    0.59869259   1.12243069   2.83165599
H    0.05851506   1.71077830   2.30412668
H    0.69536728   0.33739522   2.29257792
C   -0.36843511  -1.10021236   0.84386398
O   -0.34160562  -2.30033963   0.18361168
O   -1.20701814  -0.23737266   0.18858928
O    0.89501075  -0.57088632   0.87990156
