16
Energy:   -493.42031004
O   -0.16471300   1.20997934  -1.20413147
H    0.44434754   0.53225947  -0.91092014
H   -0.83688030   1.23942795  -0.52328218
O   -1.53140041  -1.15689228  -1.51870283
H   -1.05701791  -1.54208795  -0.78194141
H   -1.05112715  -0.35369259  -1.71979905
O   -1.99059797   0.44451196   0.70654665
H   -2.13153661  -0.17665958  -0.00795603
H   -1.15829323   0.17706752   1.09638526
O    2.90718147   0.98470830   1.16173545
H    3.01064219   0.56288790   0.30874349
H    2.06831840   0.66058186   1.48958090
C    0.77555867  -1.14728632   0.82878412
O    0.45714313  -0.06541892   1.60668696
O    1.27900784  -0.71522413  -0.36994854
O   -0.34959461  -1.89774910   0.60829390
