16
Energy:   -490.66632357
O   -0.83300015  -1.12543495  -1.03781444
H   -0.37493426  -0.28921668  -0.95327745
H   -0.84017260  -1.48585657  -0.15109201
O    2.74852129   1.13160349  -1.56829159
H    3.14761528   0.69891321  -0.81348370
H    1.82699066   1.23012653  -1.32890413
O   -0.33581740  -1.72678571   1.60311332
H   -0.48237806  -0.78087527   1.60081788
H    0.55504888  -1.83241522   1.26929973
O   -2.61059260   0.74770493   0.01023736
H   -1.83983910   1.00651524   0.51539883
H   -2.28133353   0.10409477  -0.61712718
C    0.66509256   1.10624626   0.65910415
O    1.59457175   0.11731091   0.84627703
O   -0.43904879   0.84628054   1.42747156
O    0.30322832   1.14826342  -0.66190646
