16
Energy:   -498.65226300
O   -0.89191018   1.78991342  -0.79782366
H   -0.38406301   1.44460734  -1.53204897
H   -1.16123740   1.01395626  -0.30631049
O   -0.62945377  -1.32893079   2.92623546
H   -0.98815109  -0.92466676   2.13621098
H    0.09176391  -1.87355437   2.61085939
O    1.39863086   0.84850696   0.41917279
H    0.64487860   1.39926290   0.20761363
H    1.04971517  -0.04279290   0.42779002
O    1.01139592   0.34174061  -2.24205277
H    0.30335562  -0.26499045  -2.02574699
H    1.42294790   0.53996655  -1.40088496
C   -0.85255789  -1.36201141  -0.09929104
O    0.45299770  -1.60505735   0.23747541
O   -0.93219640  -1.06745395  -1.43495282
O   -1.32261028  -0.30233599   0.63140653
