16
Energy:   -489.82758884
O    1.94963544   0.78263097   0.20617648
H    1.16009329   0.50392908   0.67005178
H    1.83827977   0.44384744  -0.68211260
O   -0.92494283   0.79985557  -1.73786810
H   -1.31255299   1.30977315  -1.02654941
H   -0.65073385  -0.01879705  -1.32452904
O   -2.18787917   1.61876692   0.57671891
H   -2.80002162   0.96211719   0.24456745
H   -1.43202737   1.11298488   0.87522257
O    2.35847570  -1.97188030   0.29321726
H    2.56208544  -1.07660325   0.56387185
H    1.42645481  -1.95087133   0.07612847
C   -0.66253610  -1.15954187   0.66524149
O   -2.01742972  -1.14454379   0.46276503
O   -0.27438923   0.02011763   1.24389878
O   -0.02310933  -1.31108139  -0.53723487
