16
Energy:   -503.57552767
O   -1.61527182  -0.18396310  -0.46242697
H   -0.92369859  -0.66994645  -0.01322936
H   -1.27178449   0.70614113  -0.53964592
O    0.14512696   1.89009708  -0.99441226
H    0.46190255   1.50896845  -0.17549466
H    0.32708318   1.22264142  -1.65594587
O    0.36717989  -0.53540232  -2.31581988
H   -0.46636008  -0.58994166  -1.84841383
H    1.03130166  -0.57618408  -1.62769855
O   -0.57708297  -0.46393916   3.06088567
H   -0.66652417  -1.32447439   2.65136006
H   -0.03337016   0.03616710   2.45219695
C    1.37300983  -0.51264897   0.77181503
O    2.09948004  -0.32485107  -0.37445343
O    0.37955459  -1.42669557   0.53801108
O    0.81669293   0.67807969   1.15970286
