16
Energy:   -490.02889739
O   -0.29420041  -1.22183339  -1.57066716
H   -0.57417187  -1.11356983  -0.66175197
H    0.65159137  -1.07602811  -1.54944015
O    2.35312989  -1.02833354  -0.85531570
H    1.90325980  -0.42906289  -0.25972907
H    2.15723898  -1.90005521  -0.51186275
O   -2.11544140   1.55436006   1.55387487
H   -1.72189045   0.68236698   1.52260864
H   -1.61240707   2.06750261   0.92151972
O   -0.44633209   1.83523649  -0.68781122
H    0.09447436   1.35584639  -0.06016054
H   -1.07964589   1.18956730  -1.00127058
C    0.22915011  -0.64224045   1.46340271
O    0.87176143  -1.84570672   1.33819089
O   -0.99685817  -0.71406040   0.85607712
O    0.97768590   0.33889257   0.86770784
