16
Energy:   -489.85240588
O   -2.22319139  -0.89303155   1.37185469
H   -1.77401416  -0.75355385   0.53817752
H   -2.40928721  -0.01132543   1.69464642
O    1.84265709   0.88059334  -2.29488961
H    1.23420268   1.24724301  -1.65334218
H    1.81153656  -0.06391416  -2.14267610
O    1.30273553  -1.40318734  -0.79843946
H    1.76687500  -0.87474365  -0.14916782
H    0.44664452  -0.98324734  -0.88204819
O    0.29128318   0.03581550   2.05940196
H    0.31998998   0.60244909   1.28847127
H   -0.49962325  -0.49024815   1.94126686
C   -0.82483951   1.13304245  -0.62788370
O   -1.75321591   1.59731972   0.26627639
O   -0.98385554  -0.21797302  -0.79088642
O    0.43455899   1.39122237  -0.15350121
