16
Energy:   -503.54870597
O    0.68426965   2.01975352  -0.18551030
H    1.01646500   1.14990539  -0.40741643
H    0.35083557   1.92878554   0.70711414
O   -0.58994436   1.05611255   2.07857171
H   -1.18734817   0.85132895   1.35926356
H    0.15126066   0.46404299   1.95089790
O   -1.58347764   0.43973691  -0.39571267
H   -0.91628542   1.08889572  -0.61860107
H   -1.08639589  -0.32926261  -0.11681963
O    0.17750074  -2.24546328  -2.20079257
H   -0.40044312  -2.59679721  -1.52346162
H    0.68861409  -1.57075089  -1.75384942
C    1.15536193  -1.11442658   0.40870272
O    1.52746590  -0.34960012   1.48273135
O    1.32767559  -0.39581749  -0.74499038
O   -0.16263865  -1.46763551   0.53479050
