16
Energy:   -488.36241233
O    2.16141967  -1.73748311   1.53169562
H    1.36110935  -2.22574625   1.72491661
H    1.90237468  -1.10914265   0.85766609
O   -2.66533995   0.27433887   0.47398095
H   -2.05212332   0.13914342  -0.24845895
H   -2.33224936  -0.28127640   1.17866115
O   -0.34732603   1.63846808   1.09295990
H    0.19877906   1.00292173   0.63027004
H   -1.24526540   1.37107338   0.89690683
O    1.24672821   1.07665844  -2.56543375
H    0.32974036   0.92047933  -2.79120621
H    1.35951301   0.65430811  -1.71388714
C    0.08012823  -0.93169349  -0.58232684
O   -0.48845882  -1.46420966   0.54465749
O    1.11750726  -0.11075630  -0.22594829
O   -0.85956062  -0.20891917  -1.26961306
