16
Energy:   -488.05901997
O   -0.03385979   2.68687420  -0.19924404
H   -0.69108826   2.39263312   0.43139434
H    0.50261916   1.91188048  -0.36599810
O    0.46956259  -1.08720054  -2.33045746
H   -0.10076905  -1.67605752  -1.83629035
H    0.84306243  -0.50419292  -1.66952491
O   -0.75847247  -2.64768486  -0.42557612
H    0.14763311  -2.94594348  -0.34654238
H   -0.75150991  -1.76088582  -0.06533894
O   -0.95802257   1.63120612   2.18735893
H   -0.10125178   2.05751669   2.20821488
H   -0.82571456   0.85293858   1.64604011
C    0.92700468  -0.18005986   0.61874424
O    1.49920412  -1.42483930   0.61035711
O   -0.43706666  -0.30449666   0.58835269
O    1.34661768   0.52245505  -0.48042724
