16
Energy:   -489.91283552
O    2.41346662   1.82458829   0.44665722
H    1.45899730   1.87822629   0.39825124
H    2.61445114   0.91598343   0.22243799
O   -1.27462380  -0.83427739   1.39144407
H   -0.93760657   0.01510013   1.10647202
H   -1.44658801  -1.30927779   0.57840362
O   -1.94223930  -1.49781570  -1.20662920
H   -2.62906671  -0.88051593  -0.95475433
H   -1.15659403  -0.95865083  -1.29770383
O    1.82784589  -0.88201925   0.23730653
H    1.46853768  -0.64148959   1.09128249
H    1.22739413  -0.48779109  -0.39536534
C   -0.49344678   1.29556809  -0.75262162
O   -1.85728899   1.25885657  -0.87730149
O    0.04601309   0.16353634  -1.30451468
O   -0.15816374   1.36172568   0.57440087
