16
Energy:   -494.19102507
O   -1.43859821  -0.58931888   0.08850131
H   -0.63234508  -0.79244344   0.56276723
H   -1.21461259   0.16808035  -0.45224696
O   -0.03269067   1.19517734  -1.45018548
H    0.48458560   1.23413438  -0.64573569
H    0.19488636   0.35165766  -1.84122905
O    0.43117329  -1.52225026  -1.75298212
H   -0.32252746  -1.49395530  -1.16360411
H    1.15159498  -1.15753574  -1.23897069
O   -1.07274948   1.06159770   2.30656479
H   -1.51099106   0.45844768   1.70624303
H   -0.15259851   1.03504789   2.04417359
C    1.74689042  -0.02993121   0.86308599
O    1.20953291   1.22923534   0.91509459
O    2.19916566  -0.28117390  -0.40554438
O    0.78748560  -0.94963644   1.19694953
