16
Energy:   -489.48518183
O   -0.48887740  -2.40930475   0.03476882
H   -1.23576684  -1.88976303   0.33219850
H    0.26581690  -1.83160072   0.14846323
O    1.79289657   0.99888117  -1.73713328
H    1.67636825   0.28131651  -1.11443435
H    1.90716682   1.77563325  -1.18956559
O   -0.71410269   1.31497456  -0.62042730
H   -0.00059804   1.16857140  -1.24148211
H   -0.36986818   1.00629386   0.21769600
O   -2.29569668  -0.51229710   0.86703690
H   -1.48307515  -0.38211651   1.35584269
H   -2.17248076  -0.01351782   0.05940523
C    1.32692238   0.09149100   1.29004136
O    1.80419574   1.34719621   1.02101916
O    1.42143567  -0.68363787   0.16427884
O    0.01553170   0.17533033   1.67863585
