16
Energy:   -487.29401095
O   -2.00606999   1.51064154  -1.08428627
H   -1.08672433   1.77041502  -1.14389447
H   -1.99480850   0.70511278  -0.56734484
O    0.75999523   1.19734977  -0.97108448
H    0.39152784   0.97698307  -0.11557168
H    0.60267999   0.42033975  -1.50749776
O    0.23046053  -1.34392908  -1.88943902
H   -0.50222521  -1.14816945  -1.30541707
H    0.95138984  -1.57112102  -1.30217706
O    1.73689974  -0.34401439   2.81969824
H    1.29685250  -0.90755419   2.18329179
H    1.26736199   0.48851498   2.76811346
C   -0.75436198  -0.75809680   1.04216029
O    0.35044520  -1.55234371   0.88237506
O   -1.53924992  -0.83715572  -0.07801800
O   -0.35933803   0.54010894   1.23294328
