16
Energy:   -499.06254789
O   -1.19629691   1.10335954   0.95638285
H   -0.81858425   1.20452332   0.08269476
H   -1.64026192   0.25578072   0.92923389
O   -1.62455570  -1.63482530   0.61834310
H   -1.65881945  -1.22898382  -0.24788467
H   -0.70945012  -1.55143111   0.88640843
O    2.44524802   1.27573828  -0.37331419
H    1.65035441   1.30051336  -0.90600753
H    2.29061856   0.57116660   0.25589192
O    0.92451827  -0.63747816   0.99100446
H    0.34577287   0.10208306   1.17630104
H    0.84360188  -0.77493777   0.04718814
C   -0.31285416   0.02902417  -1.92288640
O    0.56168161  -0.95798485  -1.55145840
O    0.03538067   1.20266495  -1.30774527
O   -1.58354968  -0.32313940  -1.54993344
