16
Energy:   -489.90641557
O    1.69816862  -0.09349930  -1.13589024
H    1.04049102   0.44077777  -1.58113178
H    1.23614043  -0.46659120  -0.38518109
O   -0.68096326   1.96158499  -0.03427434
H   -0.96619222   1.07010159  -0.23460813
H   -0.20421480   1.88108431   0.79183848
O    0.09997519  -2.06997251  -2.26213732
H    0.93244355  -1.65359882  -2.03884105
H   -0.52449504  -1.71133637  -1.63154323
O    0.21557037   1.17928794   2.45742047
H   -0.73289138   1.19992017   2.58480361
H    0.36610305   0.41703592   1.89836447
C   -0.96858804  -1.09417138   0.57350548
O   -1.76632823  -0.53262657   1.53539758
O    0.34741195  -0.89853924   0.90056950
O   -1.23104480  -0.50734072  -0.63667071
