16
Energy:   -490.02446063
O   -1.05658485   1.16039898   1.26183959
H   -0.15435556   0.89494982   1.08365174
H   -1.56174919   0.34963459   1.20099601
O   -0.47765613   0.66805766  -1.85070620
H   -0.20819337  -0.10049235  -1.34776232
H   -0.38272128   1.39949184  -1.24060516
O   -1.88682079  -1.48755062   1.31124891
H   -1.41825722  -1.41249367   2.14254097
H   -1.20011599  -1.45718949   0.64510586
O    2.28587846   0.84011802  -1.83484798
H    1.41441620   0.78137663  -2.22642789
H    2.16134321   0.55788994  -0.92871878
C    1.16502773  -0.95682668   0.57854148
O    0.83201817  -1.34980324   1.84804234
O    1.34940235   0.40057003   0.55448007
O    0.15568660  -1.29648249  -0.28380683
