16
Energy:   -488.66905227
O   -1.56798399   0.03010392  -0.69378475
H   -0.79810398  -0.44700926  -0.38414038
H   -1.69043340   0.73014493  -0.05255112
O    0.54090025   1.58583140  -1.48470877
H   -0.27794769   1.09468359  -1.41767355
H    1.00591711   1.38925715  -0.67147466
O    1.62121419  -0.95494059  -1.83069839
H    1.43546228  -0.03290739  -2.00841406
H    1.39429263  -1.07198741  -0.90818091
O   -1.60074499  -0.93052117   2.55275155
H   -1.05069720  -0.20421791   2.25921646
H   -1.29811120  -1.68202552   2.04296155
C    0.91659357   0.07153464   1.25954397
O    1.91717344   0.72911975   0.59367603
O    0.50274420  -1.00240932   0.51625946
O   -0.13757131   0.92454699   1.45674067
