16
Energy:   -484.56099335
O   -0.71635909   2.08986111   1.98827218
H    0.19286809   2.35525869   1.85006248
H   -0.77320858   1.21682963   1.59992181
O    1.19835760  -0.69428426  -2.07792779
H    0.84151215   0.19255254  -2.02879869
H    1.20139764  -1.00229569  -1.17164331
O   -1.54255305  -2.58894868   0.28221546
H   -0.70465881  -3.02309766   0.12196643
H   -1.30902827  -1.68176769   0.47899116
O    0.08144412   1.66655199  -1.27101292
H   -0.76357485   1.24367521  -1.11820576
H    0.64862174   1.32646316  -0.57900064
C    0.63879943  -0.42542758   1.04811854
O    1.08100141  -1.55671924   0.41440334
O   -0.66814747  -0.19340686   0.70877363
O    1.40722755   0.64237799   0.66459580
