16
Energy:   -488.09850581
O   -0.50352789   0.95519225   2.68232073
H   -0.58584153   0.87996085   1.73163858
H    0.43850210   0.91009002   2.84595790
O    0.19257543  -1.41752623  -2.18828085
H    0.70187746  -1.06458881  -1.45870668
H   -0.53292123  -0.80219407  -2.29435996
O   -1.47156095   0.77341093  -2.23625661
H   -1.22008735   0.66203029  -1.31942117
H   -0.69009634   1.13108250  -2.65770169
O    0.73770982  -1.45966498   2.14166709
H    0.00995443  -0.88098970   2.36912888
H    1.03478202  -1.14711869   1.28709423
C    0.82387000   0.76981340  -0.05624307
O    1.01750582   1.44985536  -1.22970226
O    1.45090196  -0.44642909  -0.12468217
O   -0.51831460   0.58150266   0.14589492
