16
Energy:   -484.24487186
O   -2.43016850   0.65147723  -0.70400441
H   -2.11029293   1.50752024  -0.41922060
H   -1.65585795   0.20980382  -1.05271578
O    0.17688934  -1.63530579   0.74801445
H   -0.08416963  -0.91226587   1.31835938
H    0.16959067  -1.26080685  -0.13285394
O    2.68755592  -0.73380260   0.11380353
H    2.33825484  -0.13520176  -0.54642191
H    1.91408187  -1.15333757   0.49057952
O   -0.97223837   0.67727366   1.66986412
H   -0.30095927   0.96139489   1.04946800
H   -1.67135540   0.32202444   1.12098781
C    0.46170245   0.79567972  -1.52265917
O    1.73641390   0.60549963  -1.98731028
O    0.51026411   1.34166445  -0.26701542
O   -0.19017309  -0.40862001  -1.47265282
