16
Energy:   -487.92829749
O    2.00179648   0.92881550   1.60632404
H    2.53476610   0.14093073   1.49949325
H    1.37719901   0.89611213   0.88172736
O   -0.89425266   1.23269855  -2.53711237
H   -0.24016512   1.03392011  -1.86712097
H   -1.52912659   0.51932337  -2.47182232
O   -2.41202345  -0.19315039  -0.67935763
H   -1.65916464  -0.76601449  -0.53354207
H   -2.05084255   0.69243408  -0.64036612
O    0.18883728  -1.03016762   2.28163094
H    0.04702917  -1.27193295   1.36638680
H    0.75486837  -0.25931508   2.24129475
C    0.70077945  -0.71402717  -0.76853634
O    1.92776699  -1.08612149  -0.28582961
O    0.44469464   0.58397652  -0.41257881
O   -0.26416641  -1.53162751  -0.24109974
