16
Energy:   -498.59454334
O    1.31906438  -0.54606514   2.03220843
H    0.37248808  -0.64227368   1.92747512
H    1.65558672  -0.49541919   1.13754673
O   -1.64119410  -0.39507198  -2.80699568
H   -1.60822259   0.03425702  -1.95211479
H   -1.30638587  -1.27716838  -2.64562270
O    1.56411126   0.00694568  -0.63674119
H    0.78347400  -0.54642336  -0.61184093
H    1.27622273   0.84452843  -0.27368861
O    0.36092332   1.86932056   1.00557467
H    0.68555568   1.21465986   1.62385053
H   -0.35479196   1.43079259   0.54549130
C   -1.44085687  -0.68747111   0.20620224
O   -0.54562034  -1.55012366  -0.36941960
O   -1.33972535   0.54121752  -0.39145608
O   -1.16567243  -0.56948346   1.54341301
