16
Energy:   -486.60029499
O    0.27477457   2.58936367   0.37079438
H    0.09255067   2.47633722  -0.56207823
H   -0.13306477   1.83085707   0.78860613
O   -0.12177903  -1.62792824   2.62818914
H    0.15771625  -2.17166462   1.89166692
H   -0.44864774  -0.82466230   2.22303174
O    1.90567818   0.42249418  -0.13806381
H    1.15750179  -0.17437598  -0.15255378
H    1.53740424   1.26233179   0.13630627
O   -0.79611708  -1.22915365  -2.84139643
H   -0.33224040  -1.83800026  -2.26663032
H   -1.04384932  -0.50177721  -2.27062143
C   -1.13027708  -0.24336709   0.08593623
O   -1.19198482   0.62762184  -0.96977624
O   -0.84590271   0.44940527   1.23323587
O   -0.14746980  -1.17018982  -0.14399784
