16
Energy:   -488.29056907
O   -2.17627943   0.23492296  -0.90495059
H   -1.61750202  -0.41004731  -0.47134591
H   -1.67570261   0.50787051  -1.67381620
O    0.06384960   1.54280829   0.73678173
H    0.60313543   0.76847236   0.57613768
H   -0.82820473   1.25992210   0.53566903
O    0.63532419  -1.81059620   2.60759585
H   -0.06494257  -1.73628325   1.95926267
H    1.42285752  -1.52593544   2.14392425
O    0.87054633   1.56176726  -1.83371402
H    0.64218514   1.91974129  -0.97584595
H    0.83540358   0.61263442  -1.71478674
C    0.57934724  -1.38000411  -0.35544947
O    0.35672497  -1.03898394  -1.66354081
O   -0.59776684  -1.30749717   0.34186249
O    1.48969250  -0.51501100   0.19303812
