16
Energy:   -484.61584430
O    2.37501812   1.47361527  -1.00900066
H    1.86588189   1.01929742  -0.33772765
H    1.71909781   1.90407504  -1.55736620
O    0.04612794  -0.79441024  -1.94114160
H   -0.21238306   0.04987517  -1.57156609
H    0.59313501  -1.19482223  -1.26535661
O   -2.19806160  -1.11088862  -0.41291590
H   -1.90540680  -0.40442454   0.16283883
H   -1.52270710  -1.16473978  -1.08910241
O    0.22979880  -0.94468247   2.86639867
H   -0.67815199  -0.65640257   2.95995029
H    0.52559242  -0.54455828   2.04869541
C   -0.18321416   1.16578543   0.54281885
O   -1.30295010   0.76030611   1.22011960
O   -0.50551069   1.41222443  -0.76580316
O    0.76750720   0.18068254   0.60182236
