16
Energy:   -490.02496808
O   -1.81824429   0.98133660   1.76641181
H   -0.98914039   1.12020242   1.30866203
H   -2.48227087   1.02336366   1.07827354
O   -1.46057801  -1.35733185   0.33232217
H   -1.55505326  -0.71333114   1.03415503
H   -1.05140875  -0.87271724  -0.38458860
O    1.68580101  -0.75663391   0.80876326
H    1.23406511   0.06133383   0.60116920
H    1.18216733  -1.43122297   0.35322561
O    2.40019891  -0.35589173  -1.84711274
H    2.56492485  -0.42905583  -0.90703603
H    1.48170069  -0.09393646  -1.91013903
C   -0.29964265   1.24211566  -1.00451889
O   -1.62851223   1.56904347  -0.93984886
O   -0.16679874  -0.03764879  -1.47532058
O    0.25298793   1.32874059   0.24643106
