16
Energy:   -493.45019528
O   -1.55161512  -0.56659631  -0.46157019
H   -0.77088440  -0.84624158   0.01643599
H   -1.40273732   0.36151517  -0.64233614
O   -0.33202838   1.80648680  -1.13371168
H    0.11218537   1.56851391  -0.31990895
H    0.00230335   1.18485221  -1.78025988
O    0.46428619  -0.57095327  -2.33377412
H   -0.32126085  -0.81993744  -1.84678891
H    1.10808471  -0.35810823  -1.65816159
O   -0.31790879  -0.54408749   3.22026092
H   -0.19847928  -1.36852626   2.74880662
H    0.03282975   0.12287690   2.63002976
C    1.41358386  -0.06534401   0.77644000
O    0.63287217   0.97795933   1.19948347
O    1.96045946   0.23869728  -0.44240566
O    0.64486939  -1.19414325   0.66387651
