16
Energy:   -490.19676920
O    1.00860975   0.82982591   1.49905570
H    0.69976677   1.50735108   0.89755133
H    0.62389844   0.01928582   1.16550838
O    0.44047419   1.14633692  -1.57896132
H   -0.33426515   0.82848502  -1.11530092
H    1.02646744   0.39026382  -1.61356209
O    1.48488648  -1.41401745  -1.77982213
H    0.77740628  -1.40134889  -2.42444846
H    1.03830793  -1.40713322  -0.93321003
O   -1.59229570   0.73751220   2.50188192
H   -1.75577488   0.40895675   1.61782438
H   -0.64150336   0.83769407   2.54867266
C   -1.21869774  -1.07392448  -0.13401074
O   -1.26970138  -1.50068538  -1.43486897
O   -1.50673967   0.26448009  -0.08105951
O    0.03737884  -1.29150538   0.36869235
