7
Energy:   -128.80537825
O    1.53489552  -0.01500983   2.27619374
H    2.43105535  -0.32752159   2.15183215
H    1.52610830   0.34134236   3.16454488
O   -1.60067840   0.07354856  -2.29978314
H   -2.33851742   0.45041941  -2.77915125
H   -1.13724885  -0.45503525  -2.94944771
K   -0.42829830  -0.11247342   0.50613064
