7
Energy:   -132.79850468
O    0.95550810   0.73954431  -1.95840763
H    1.90557154   0.85276270  -1.98656614
H    0.60593699   1.55415812  -2.31956719
O   -0.97642969  -0.75360229   1.95152528
H   -0.33077163  -0.67597449   2.65390086
H   -1.82238436  -0.70805270   2.39707862
K   -0.36773924  -1.12931958  -0.82819278
