7
Energy:   -133.55425162
O    2.23676125   0.09955430  -1.00269305
H    2.96186947  -0.52166125  -1.07008109
H    2.18477192   0.50266359  -1.86931399
O   -2.19776687  -0.16126552   1.08494499
H   -2.95595291   0.13784653   1.58685908
H   -2.50605554  -0.94375312   0.62788579
K    0.28773261   1.03812483   0.67396877
