7
Energy:   -128.22049689
O    1.18781545  -0.59746662   1.37331823
H    1.27547040  -0.42695986   2.31112200
H    2.08658786  -0.59559936   1.04402121
O   -1.17040425   0.63811159  -1.38295324
H   -1.15474402   1.53409796  -1.04650856
H   -1.07945220   0.73604817  -2.33077601
K   -1.30260672  -1.47817692   0.04177895
