7
Energy:   -139.49144392
O   -0.00016050   0.00030744  -2.65782019
H    0.49550965  -0.57170022  -3.24378111
H   -0.49583660   0.57247101  -3.24362382
O    0.00015869  -0.00030864   2.65782019
H    0.57237660   0.49522984   3.24368718
H   -0.57192771  -0.49596280   3.24371776
K   -0.00013438  -0.00004059  -0.00000002
