7
Energy:   -128.69059226
O    0.76188330   0.44817705  -2.01321771
H    0.35842565  -0.27577556  -2.49211895
H    0.61833790   1.21362570  -2.56973810
O   -0.77486432  -0.48105545   2.00036917
H   -1.48903807   0.14867966   2.09845786
H   -1.02074564  -1.21283693   2.56629327
K    1.75190383   0.19981510   0.47034782
