7
Energy:   -131.14698794
O    1.87663230   1.51407515   0.11398840
H    2.48653425   1.95170339   0.70790167
H    2.26108864   1.63216879  -0.75461914
O   -1.78148013  -1.62824069  -0.05343074
H   -1.43814002  -2.48860274   0.18766378
H   -2.67720054  -1.80009398  -0.34391871
K   -0.87916518   0.99415254   0.12334421
