7
Energy:   -127.80177470
O   -0.13996836  -2.65233169  -0.48151333
H   -0.46113674  -3.02804241  -1.30122314
H    0.04805639  -3.41003602   0.07234828
O    0.07224214   2.63277633   0.54833162
H   -0.74234206   3.08584115   0.76608537
H    0.75389620   3.13880914   0.99049719
K    0.57103929   0.27485359  -0.71179015
