7
Energy:   -129.81779540
O   -0.30992854  -1.08137253   2.26559065
H   -0.77488733  -0.28122673   2.51015531
H   -0.57529863  -1.72381408   2.92367834
O    0.33564743   0.96959842  -2.29387423
H   -0.39978868   1.57342608  -2.19015476
H    0.72894945   1.21218061  -3.13214581
K    1.10687561  -0.68555638  -0.07648478
