7
Energy:   -135.26790339
O    1.50353490   2.06572645   0.80309169
H    1.84352270   2.61041461   0.09319384
H    2.17047742   2.11976772   1.48756160
O   -1.62167025  -1.97066807  -0.74759705
H   -2.37536571  -1.93268283  -1.33643669
H   -1.32917745  -2.88106981  -0.79059106
K   -0.14304596  -0.07151119   0.51942045
