7
Energy:   -129.89701028
O    0.31603453  -1.83130559   1.65869868
H    1.25841438  -1.71306853   1.77774514
H    0.07544207  -2.50107068   2.29882511
O   -0.26732667   1.80450711  -1.66705392
H   -0.50289713   2.21416744  -2.49947017
H    0.26046868   2.46354039  -1.21612261
K   -1.31608929  -0.47617509  -0.39261560
