7
Energy:   -127.98937538
O   -2.47173418   1.13776610  -1.07367683
H   -3.37946481   0.83523750  -1.04659541
H   -2.52661375   2.03145410  -1.41211712
O    2.46717292  -1.16142560   0.98189191
H    2.71296386  -1.27310554   1.90023077
H    3.20306019  -1.52632603   0.49041511
K   -0.00326391  -0.03460853   0.23685068
