7
Energy:   -129.73721708
O   -1.46544164  -2.13936083  -1.00763858
H   -2.41993318  -2.21127080  -1.00504792
H   -1.15709846  -3.04092827  -1.09892102
O    1.55296902   2.09703235   1.02058084
H    2.38680002   2.16982661   1.48497152
H    1.19512727   2.98478537   1.02928142
K   -0.15816797   0.18389926  -0.48537629
