7
Energy:   -127.80328381
O    0.29558320   1.69191603  -1.19222330
H    0.58949184   1.95926158  -0.32137549
H    0.08836552   2.51314187  -1.63818384
O   -0.37098449  -1.70464894   1.16420274
H   -0.94980358  -1.23315212   1.76327791
H    0.05035807  -2.36838716   1.71023742
K    0.38145215  -0.96013941  -1.65889345
