7
Energy:   -128.87548487
O    0.72376810  -1.76996889   0.64910975
H    1.56669015  -2.21549405   0.56412973
H    0.49846463  -1.85729484   1.57530863
O   -0.68850333   1.84923325  -0.59377590
H   -0.89345731   2.64453913  -1.08542034
H   -0.89599469   2.06845578   0.31458563
K   -0.37249697  -0.86039526  -1.64030234
