7
Energy:   -129.19148736
O   -0.01325989  -2.67207810   0.23852652
H   -0.75002207  -3.23906123   0.46643764
H    0.67129052  -3.27392721  -0.05370668
O   -0.16608170   2.67855332  -0.20871195
H    0.23210210   3.36971253  -0.73784373
H   -0.33188990   3.09078392   0.63911198
K    0.51413936   0.04791899  -0.40619079
