45
Energy:   -372.74655332
O   -1.99097102   0.39441548   1.09457989
H   -1.73849077   0.65790981   0.20967520
H   -2.09949897  -0.55507234   1.04048359
O    0.91066874  -1.77330397   1.23842933
H    0.02600988  -2.07332828   1.02963287
H    0.77931688  -1.02984655   1.82685910
O   -1.97217072  -1.64501291  -2.21577679
H   -1.86698746  -0.70276648  -2.08409539
H   -1.16450769  -1.91816386  -2.65086395
O   -0.98612759   0.84954450  -1.41456217
H   -0.76460751   1.77873485  -1.35319447
H   -0.14864809   0.39626466  -1.31762238
O    1.45954594  -0.31367112  -0.97098879
H    1.84714599   0.46496155  -0.57132742
H    1.33774657  -0.92214838  -0.24218691
O    2.11428132   1.84604926   0.72106929
H    1.61085667   1.49923716   1.47254002
C    3.49109284   1.77409980   1.05535521
H    4.04352033   2.16856353   0.19820444
H    3.83160159   0.74241020   1.23548765
H    3.74720775   2.38334947   1.93626232
O   -1.70759492  -2.32874809   0.44838027
H   -1.86535180  -2.20474858  -0.49933286
C   -2.12312873  -3.64257398   0.78561457
H   -1.93848433  -3.76537295   1.85627421
H   -1.55480126  -4.41898839   0.24992634
H   -3.19627499  -3.80921221   0.60295059
O    0.08573171   3.29287321  -0.68771373
H    0.90112823   3.01016811  -0.24768006
C   -0.74206354   3.90214051   0.29008081
H   -1.65592117   4.21459532  -0.22248278
H   -0.28119639   4.79497838   0.74087936
H   -1.02399930   3.21047761   1.09933479
O    0.63170118  -1.93755075  -3.14118527
H    1.12930050  -1.45186873  -2.46669941
C    0.74377575  -1.21917702  -4.35934464
H    0.17768640  -1.78000005  -5.10801383
H    1.78445911  -1.13615510  -4.70986258
H    0.31642356  -0.20616325  -4.29649117
O    0.32645389   0.65396111   2.54443775
H   -0.54956423   0.66042598   2.13094806
C    0.13863244   0.62775867   3.95034326
H    1.13509738   0.62078054   4.40033673
H   -0.39618513  -0.27255238   4.29120618
H   -0.39856615   1.51344778   4.32417452
