45
Energy:   -373.85229915
O   -1.72925127  -0.61755380   1.98838047
H   -1.74919063   0.18178218   1.46217113
H   -1.75398173  -1.32772949   1.34707653
O    1.25002513  -1.79189858   0.04388355
H    0.34010087  -2.05640399  -0.09141827
H    1.27496282  -1.47018867   0.94505650
O   -2.68197641  -0.25226662  -1.68909872
H   -2.44256734   0.40944774  -1.04021564
H   -2.04694335  -0.13614046  -2.39583741
O    1.00907486   2.21892283  -0.62494274
H    1.47497484   2.16969099   0.20976996
H    1.35806602   1.49003119  -1.13792812
O    1.88347969  -0.06283812  -1.92503956
H    2.68333612  -0.40660544  -2.32289078
H    1.67192014  -0.68859249  -1.23228717
O    2.25569728   1.61979909   1.76108052
H    1.84632740   0.84825843   2.18008480
C    3.61755859   1.30557879   1.51790746
H    4.06347749   2.18522718   1.04582671
H    3.74131115   0.45142510   0.83388691
H    4.17684676   1.09403601   2.44269053
O   -1.47759114  -2.27676190  -0.26438209
H   -1.95754020  -1.66200385  -0.83896430
C   -1.90537946  -3.59036764  -0.58682729
H   -1.35501720  -4.26997170   0.06946906
H   -1.68171469  -3.86659089  -1.62915744
H   -2.98172950  -3.74239752  -0.41037663
O   -1.54736221   1.49668477   0.17818320
H   -0.67230376   1.79832161  -0.10766852
C   -2.28564344   2.63879802   0.58198008
H   -3.26841070   2.28101874   0.90080245
H   -2.43409299   3.36042835  -0.23654893
H   -1.82258821   3.16630345   1.43056431
O   -0.53470049   0.18674826  -3.36125254
H    0.33641659   0.07299373  -2.95303909
C   -0.64082082   1.53812543  -3.77964471
H   -1.62772315   1.64878946  -4.23709686
H    0.11637636   1.81131438  -4.53117486
H   -0.57122124   2.24940263  -2.94177958
O    0.94387849  -0.73026649   2.62248935
H   -0.01945853  -0.66975140   2.54037363
C    1.23143023  -1.36890783   3.85617691
H    2.32049276  -1.42887162   3.93254670
H    0.82862146  -2.39248635   3.90918095
H    0.85892450  -0.80348896   4.72469192
