45
Energy:   -370.81876735
O   -1.70902350  -0.67240188   1.78970816
H   -2.05476602   0.09016360   1.32582471
H   -1.47481243  -1.28927788   1.09628114
O    1.74122759  -2.25289086   0.88935210
H    0.87647531  -2.41715755   0.51325132
H    1.58164918  -1.62240736   1.59167477
O   -1.45316845   1.37650254  -2.41931287
H   -0.89035587   2.02902312  -2.00255066
H   -0.88585461   0.61600507  -2.54592433
O   -0.14305693   2.94214569  -0.56701123
H   -0.87374611   2.64180634  -0.02652863
H    0.62667780   2.51915187  -0.18646356
O    2.59223679  -0.54427730  -1.07270965
H    2.45239027   0.26810568  -0.58618248
H    2.45305311  -1.23744928  -0.42744043
O    1.89398943   1.51921901   0.68783655
H    1.60768104   0.99191854   1.44836597
C    3.02809785   2.27158980   1.08817399
H    3.33749518   2.85960791   0.21984617
H    3.87539057   1.63589986   1.38945570
H    2.80687114   2.96884817   1.91137921
O   -0.78324683  -2.21213732  -0.34324383
H   -0.55552436  -1.76721158  -1.17306721
C   -1.62637597  -3.30823625  -0.65984162
H   -1.87326489  -3.79811426   0.28596523
H   -1.13483456  -4.04896166  -1.30983411
H   -2.56775744  -2.99620272  -1.13860393
O   -2.48207566   1.42394768   0.15396527
H   -2.30943557   1.30458365  -0.79174658
C   -3.73882387   2.06908687   0.28401575
H   -3.91758632   2.19573070   1.35522560
H   -4.56708827   1.47463070  -0.13237022
H   -3.75598780   3.06529966  -0.18507147
O    0.28073454  -0.80186283  -2.54944504
H    1.15110652  -0.69202233  -2.13857892
C    0.48547945  -1.05641058  -3.92995898
H   -0.50480992  -1.17756714  -4.37732152
H    1.05753040  -1.97969100  -4.11186091
H    0.99334640  -0.22585367  -4.44476352
O    0.87539983  -0.23453394   2.64582306
H   -0.07239157  -0.33577807   2.47300996
C    1.09969638  -0.54675430   4.01137909
H    2.17198247  -0.42763443   4.18885640
H    0.82545745  -1.58367455   4.26111242
H    0.56325791   0.12898996   4.69576261
