45
Energy:   -370.63171553
O   -1.77087811  -0.70251653   2.54144939
H   -1.84518075   0.01839824   1.91615517
H   -2.29993997  -1.40442719   2.16244170
O    0.91768186  -1.84774918  -0.96909891
H    0.13248250  -1.39711120  -1.27993523
H    0.90645954  -1.72253208  -0.02019081
O   -1.20628233  -0.30033428  -1.71245311
H   -1.50822933   0.14881847  -0.92294588
H   -0.67441579   0.35059580  -2.17031756
O    0.39221123   2.81820522  -0.19099631
H    1.08581144   2.32352869   0.24540458
H    0.45509128   2.55960555  -1.11045493
O    2.77434951   0.04497909  -1.63466302
H    2.79310319   0.46399830  -0.77425437
H    2.24214817  -0.74041183  -1.50756195
O    2.21140496   1.03013423   0.94134602
H    1.78499629   0.24619910   1.31823409
C    3.05145960   1.58547280   1.94056624
H    3.52381466   2.46734464   1.49935433
H    3.84798435   0.89467935   2.25857578
H    2.49391724   1.90779403   2.83389310
O   -3.20249391  -2.68165720   1.23516167
H   -4.08753903  -3.04966704   1.09485071
C   -2.43145792  -2.96164930   0.07773275
H   -1.43780600  -2.54030266   0.25268433
H   -2.84434695  -2.49646420  -0.83105920
H   -2.31689402  -4.04142376  -0.10595059
O   -1.74610527   1.24085155   0.56068574
H   -1.04973179   1.89202723   0.38905388
C   -2.98920367   1.92403789   0.53840204
H   -3.76236645   1.17592905   0.73343455
H   -3.20182394   2.38834982  -0.43729483
H   -3.06166527   2.70056209   1.31592170
O    0.69102045   1.52437986  -2.66003691
H    1.49999997   1.03846605  -2.44126036
C    0.79056840   1.93902687  -4.01306752
H   -0.12863442   2.48468685  -4.24286433
H    0.86882436   1.09216649  -4.71269658
H    1.64193219   2.61501516  -4.18912679
O    0.80651611  -1.27264902   1.76911024
H   -0.07319057  -1.09943055   2.13590010
C    1.31374490  -2.43806665   2.39923284
H    2.30493169  -2.61872877   1.97450335
H    0.69364366  -3.32815947   2.20953161
H    1.42565170  -2.31820043   3.48821690
