45
Energy:   -371.46860029
O   -2.34448828  -1.57471308  -0.47372862
H   -2.62888751  -0.68187492  -0.27830868
H   -2.02339506  -1.91270054   0.36227106
O    1.57346476  -0.72565766  -0.22127234
H    0.99196379  -0.32950647   0.42769045
H    1.54058468  -1.66343328  -0.03225476
O   -0.37333945  -0.59004906  -2.12444331
H    0.38508163  -0.70494014  -1.55187947
H   -1.08933448  -1.02915739  -1.66534981
O    0.93382930   2.81314393   0.58697086
H    0.40258770   2.73890512  -0.20581083
H    1.81589039   2.56657928   0.30875162
O   -0.17691259   0.51583057   1.52239691
H    0.29506686   1.34193491   1.41742605
H   -1.02966931   0.67347892   1.11719966
O    3.16990058   1.56382346  -0.46576524
H    2.76676901   0.68299484  -0.47277621
C    4.57817656   1.39267528  -0.46668900
H    5.01638570   2.39437108  -0.45872195
H    4.94218600   0.86794234  -1.36386780
H    4.94165913   0.85396576   0.42238344
O    0.94832796  -3.34091221   0.39574277
H    0.21085076  -3.17405724   1.00130869
C    0.42898289  -4.01436273  -0.73972140
H    1.27277652  -4.19450310  -1.41132169
H   -0.31871054  -3.41624898  -1.28377269
H   -0.02083830  -4.98755666  -0.48806331
O   -2.49123889   1.16395030   0.10870152
H   -2.03901366   1.65874198  -0.59065304
C   -3.27778252   2.08467673   0.84771826
H   -3.78015693   1.51076308   1.63112637
H   -4.05047901   2.57286991   0.23340166
H   -2.67329095   2.86734551   1.33227668
O   -0.55349167   2.14036392  -1.72083546
H   -0.46591559   1.21830184  -2.00465799
C    0.14714194   2.94651493  -2.65452003
H    0.03824126   3.98168726  -2.31979017
H   -0.26407439   2.87214523  -3.67341532
H    1.22244227   2.71242330  -2.69584371
O   -1.07024931  -2.11424981   1.98001076
H   -0.70177765  -1.22459905   2.08571528
C   -1.37771321  -2.60926585   3.27343986
H   -1.79158561  -3.61190122   3.13590022
H   -2.13062259  -1.99773376   3.79491210
H   -0.48954109  -2.69220105   3.91923346
