45
Energy:   -373.03227247
O   -1.74586839  -0.17709812   2.07223806
H   -1.88599922   0.54074491   1.45474589
H   -1.66680726  -0.95573167   1.52113826
O    1.13869225  -2.87024139   0.27863664
H    0.20502080  -2.65950076   0.26981293
H    1.18221449  -3.77981074  -0.01635704
O   -2.19095576  -0.34111773  -1.78841137
H   -2.28914602   0.40307164  -1.19446465
H   -1.35787739  -0.18490999  -2.23317132
O    0.41364967   2.50806379  -1.13757395
H    1.07303580   2.20157485  -0.51507390
H    0.38436964   1.82791180  -1.81045417
O    2.37251935  -0.85141928  -1.10482446
H    2.40790101  -0.12271549  -0.48517070
H    2.01086228  -1.57917890  -0.59905579
O    2.16134329   1.30117455   0.66112822
H    1.75932733   1.02941882   1.49955249
C    3.32370365   2.05533129   0.96559461
H    3.76399519   2.35339058   0.01019458
H    4.07531331   1.47263825   1.52086849
H    3.09990169   2.96902102   1.53818617
O   -1.54298810  -2.21205518   0.12990360
H   -1.80481367  -1.64475711  -0.61039603
C   -2.64538601  -3.04864671   0.44194081
H   -2.33331630  -3.68089843   1.27761745
H   -2.93117744  -3.70521391  -0.39473123
H   -3.53454550  -2.48049378   0.75717880
O   -1.95069388   1.74678525   0.06792254
H   -1.14450546   2.13589567  -0.30231603
C   -2.81067482   2.81168079   0.44070136
H   -3.71364697   2.35570754   0.85568920
H   -3.10703022   3.43839056  -0.41497713
H   -2.37133183   3.46276502   1.21261093
O    0.38167731   0.18519453  -2.70608062
H    1.10884833  -0.25751832  -2.24385674
C    0.73271026   0.27133369  -4.07790047
H   -0.09709868   0.77245159  -4.58365058
H    0.87025256  -0.71666823  -4.54449628
H    1.64440461   0.86545269  -4.24705530
O    0.84071310   0.38757494   2.93520129
H   -0.09592535   0.20805699   2.76518661
C    1.42923045  -0.81193325   3.41202538
H    2.48390384  -0.59192551   3.59842775
H    1.37595971  -1.63228477   2.67924783
H    0.98100019  -1.15953897   4.35597306
