45
Energy:   -373.93848422
O   -1.88322190  -0.88881209   1.28286428
H   -2.13033663  -0.12805520   0.75711233
H   -1.62848435  -1.55162539   0.64097710
O    1.48390980  -3.22112130  -0.03158105
H    0.57749440  -3.04595333  -0.28448251
H    1.73452042  -3.98525994  -0.55073258
O   -1.29576350  -0.31724671  -2.43779029
H   -1.82996716   0.22959944  -1.86175420
H   -0.41458672   0.05003759  -2.36806534
O   -0.19068913   2.96353013  -0.72866625
H    0.21492219   3.01265332   0.13695388
H    0.31324772   2.29465188  -1.19221925
O    2.34079053  -0.64390128   0.30973399
H    1.79863239  -0.40621907   1.06193315
H    2.17090053  -1.57644271   0.17655849
O    1.04189567   2.62817139   1.71644257
H    0.87522373   1.74908845   2.08773348
C    2.44669962   2.78576747   1.59718191
H    2.61667498   3.78100681   1.17754847
H    2.90140867   2.04701333   0.91875775
H    2.96460331   2.73141504   2.56754211
O   -1.07377170  -2.55134983  -0.84463577
H   -1.15116939  -1.84907138  -1.50738598
C   -2.16319022  -3.44076919  -1.03073870
H   -2.06054438  -4.22544694  -0.27626547
H   -2.15747300  -3.91841293  -2.02300937
H   -3.13986232  -2.95314414  -0.88544333
O   -2.35309802   1.28694930  -0.39243596
H   -1.67225304   1.97190989  -0.46794995
C   -3.58431089   1.93305188  -0.11101088
H   -4.34001727   1.14711644  -0.02916623
H   -3.89489571   2.62331355  -0.91091914
H   -3.56538382   2.48876538   0.83956874
O    1.18538669   0.76455286  -1.77375196
H    1.64973960   0.27307821  -1.08002845
C    2.15205819   1.18827581  -2.72166485
H    1.61205405   1.74012140  -3.49584001
H    2.67302653   0.34601486  -3.20329315
H    2.90755920   1.86124631  -2.28680135
O    0.53395594  -0.08439721   2.36052683
H   -0.35069937  -0.36378349   2.08168716
C    0.95688746  -0.96112862   3.39251750
H    1.95483655  -0.63220741   3.69483134
H    1.02916835  -2.00791235   3.05815748
H    0.30237223  -0.92339483   4.27736963
