45
Energy:   -372.12568168
O   -2.57730779  -0.57646573   1.87039166
H   -2.52093829   0.15842458   1.25966213
H   -2.67922112  -1.34631139   1.31076394
O    1.17765765  -1.63109495   0.12043153
H    0.45240333  -1.38101855  -0.45201919
H    0.91203201  -1.33054995   0.98953887
O   -0.81829950  -0.72850987  -1.53263150
H   -1.33698863  -0.07467478  -1.06391719
H   -0.18907045  -0.21646949  -2.04068395
O    0.08227407   2.82930033  -0.83981831
H    0.51558337   2.64020943  -0.00752057
H    0.50439555   2.24389472  -1.46858344
O    3.24759827  -0.72431765  -1.37000401
H    3.83976239  -1.45790967  -1.53558254
H    2.58029746  -1.08201997  -0.78435007
O    1.19013942   1.86147119   1.48153375
H    0.85265870   1.05575433   1.90028234
C    2.60057125   1.74023765   1.38923927
H    2.96426526   2.65603398   0.91539441
H    2.91427267   0.88668884   0.76809261
H    3.08496551   1.64987607   2.37411201
O   -2.43596872  -2.55710624  -0.06750387
H   -1.93042931  -2.12726726  -0.77325995
C   -1.74678198  -3.74300920   0.29469714
H   -2.32973732  -4.21454748   1.09049858
H   -0.73560211  -3.54529433   0.68354343
H   -1.66494208  -4.45858464  -0.53838830
O   -2.10606875   1.29861352  -0.13796528
H   -1.43101793   1.96927167  -0.31947921
C   -3.35758376   1.82544229  -0.54869073
H   -4.10643982   1.05735795  -0.33715765
H   -3.39208622   2.04816960  -1.62664224
H   -3.63739691   2.73627416   0.00345711
O    1.26017792   0.88169033  -2.48794629
H    2.04980014   0.40837591  -2.18646085
C    1.58481089   1.52625418  -3.70929172
H    0.68450584   2.05448891  -4.03472081
H    1.86964708   0.81677878  -4.50193939
H    2.39313655   2.26585647  -3.59804683
O    0.11324617  -0.58534270   2.46674478
H   -0.84900762  -0.60226467   2.35627052
C    0.39258554  -0.80043425   3.84087684
H    1.48053089  -0.77830655   3.94750935
H    0.03420979  -1.77796624   4.19972969
H   -0.02992486  -0.01632530   4.48851520
