45
Energy:   -370.93120613
O   -1.56745679  -0.13802867   2.33909253
H   -1.39946152   0.72461285   1.95980499
H   -1.71134410  -0.70833442   1.58392391
O    0.99051385  -2.39475104   0.51106322
H    0.05996374  -2.26540484   0.32782052
H    1.12085114  -2.00704165   1.37646802
O   -2.35107243  -0.45037320  -2.26105863
H   -2.50068665   0.44698076  -1.96339556
H   -1.47860912  -0.43045667  -2.65430531
O   -0.72193023   2.13861323   1.07466144
H    0.21225398   1.93027377   1.06341926
H   -0.96486114   2.20176968   0.15095820
O    2.14992303  -0.46773427  -1.03741070
H    2.17091798   0.21320103  -0.36501337
H    1.83009923  -1.24594248  -0.58097169
O    1.91053731   1.17944068   1.21812666
H    1.76499749   0.48328171   1.87585314
C    2.87511240   2.07567691   1.74622635
H    3.02710551   2.85331884   0.99279665
H    3.84553486   1.59153582   1.93770738
H    2.53990070   2.56182147   2.67578211
O   -1.69724617  -1.77598608   0.07881058
H   -1.98652253  -1.36933926  -0.75147903
C   -2.53105380  -2.89762751   0.32216029
H   -2.19149598  -3.34372749   1.26087244
H   -2.45553261  -3.66268299  -0.46635984
H   -3.59093744  -2.62226611   0.43877976
O   -1.19639235   2.15378611  -1.66460516
H   -0.61208631   1.59548404  -2.19874795
C   -1.14396291   3.46684394  -2.19908065
H   -1.80761542   4.08240194  -1.58577903
H   -1.49809394   3.51644150  -3.24067012
H   -0.13429399   3.90425293  -2.15414303
O    0.29243011   0.12233904  -2.98306775
H    0.99935326  -0.10994938  -2.36280569
C    0.69177867  -0.31211036  -4.27314846
H   -0.11571538  -0.04264685  -4.95931753
H    0.83731968  -1.40230435  -4.32857593
H    1.61370424   0.17966000  -4.62098818
O    1.01078914  -0.90467806   2.89646532
H    0.07794905  -0.64583462   2.86135520
C    1.21244927  -1.62530530   4.10168868
H    2.26808018  -1.90917113   4.12511465
H    0.61018296  -2.54588333   4.15256814
H    1.00122791  -1.02187851   4.99837088
