45
Energy:   -373.09652518
O   -2.31599644  -0.76295305   0.50589632
H   -2.03864520   0.08909119   0.84253968
H   -2.44519062  -0.62005209  -0.43171769
O   -0.01740524  -2.11945123   0.94537407
H   -0.89350163  -1.77511902   0.77181632
H    0.29569694  -1.61239168   1.69443314
O   -2.33278523  -0.28995178  -2.17390629
H   -1.86520732  -1.05891921  -2.49993058
H   -1.68969455   0.41777206  -2.21625232
O    0.77613981   2.78573863  -0.02267817
H    1.50080392   2.23023733   0.26457101
H    0.50393683   2.41100705  -0.86036167
O    1.45093971  -1.00888294  -1.02356872
H    2.02486624  -0.43163680  -0.51995470
H    0.93891220  -1.47459881  -0.36238160
O    2.50616327   0.76332883   0.89882059
H    2.02925575   0.42954856   1.67314173
C    3.84476684   1.01706288   1.29416005
H    4.36762887   1.39230685   0.41025255
H    4.36538761   0.11011597   1.63938266
H    3.91736942   1.78124075   2.08380451
O   -0.43357202  -2.23459594  -2.79782144
H    0.37490186  -1.98751460  -2.32480550
C   -0.84331205  -3.50433805  -2.31574069
H   -1.75500724  -3.76738273  -2.85897599
H   -1.07764671  -3.49530070  -1.23973747
H   -0.09585422  -4.29135597  -2.50198493
O   -1.21132124   1.62093569   1.50581359
H   -0.58372959   2.13703075   0.97836891
C   -2.36757104   2.41922271   1.70166556
H   -3.06387818   1.82280581   2.29742429
H   -2.86683429   2.68369520   0.75637839
H   -2.15458123   3.34794767   2.25382734
O    0.09000546   1.15874003  -2.16009951
H    0.55216017   0.36743011  -1.84598981
C    0.35882393   1.29228880  -3.54661858
H   -0.16918495   2.18827053  -3.88412199
H   -0.00880935   0.43728547  -4.13533957
H    1.43064267   1.42658530  -3.76096963
O    0.60477519  -0.10363690   2.81856220
H   -0.09409580   0.50503236   2.53656157
C    0.22911816  -0.63620113   4.07863796
H    1.02715386  -1.31953085   4.38143276
H   -0.71140579  -1.20745949   4.03555755
H    0.12996947   0.13834316   4.85518674
