45
Energy:   -376.89629496
O   -1.56505189  -0.59067814   1.94000974
H   -2.30955033  -1.07734509   1.58630194
H   -1.55800237   0.22936026   1.44633053
O   -0.05266580  -1.84488377   0.00038936
H   -0.59498169  -1.51099764  -0.71420519
H   -0.46488565  -1.50376038   0.79407789
O   -1.67612514  -0.48070778  -1.75074093
H   -1.74434872   0.23854062  -1.12284035
H   -0.95215737  -0.23035735  -2.32469840
O    0.75514246   2.57836550  -1.00522629
H    1.36590086   2.22954548  -0.35597239
H    0.78175570   1.94636527  -1.72362680
O    2.36536415  -0.88985524  -0.83659035
H    2.48751230  -0.15121106  -0.24017066
H    1.60068790  -1.35184593  -0.49298202
O    2.30246079   1.28878567   0.91421684
H    1.89818797   0.89472840   1.70143068
C    3.42523926   2.04449134   1.33943587
H    3.86863027   2.48128973   0.44049384
H    4.19184383   1.42639445   1.83243789
H    3.15174686   2.86660208   2.01922494
O   -3.38935914  -1.76299389   0.18390964
H   -3.03490860  -1.44911329  -0.66123358
C   -3.36721574  -3.18125459   0.15982620
H   -3.76966774  -3.51806592   1.11903198
H   -2.34962974  -3.58893137   0.05449008
H   -3.99503161  -3.60281541  -0.64074299
O   -1.51060363   1.53275587   0.16330622
H   -0.75872560   2.04054817  -0.17617821
C   -2.59597746   2.43076050   0.33089244
H   -3.43426172   1.84240604   0.71378111
H   -2.91098128   2.89835327  -0.61510276
H   -2.37902904   3.22910412   1.05777494
O    0.81555114   0.35684430  -2.74278337
H    1.44653088  -0.13890949  -2.20009007
C    1.35493272   0.45185764  -4.05143679
H    0.63169558   1.01303361  -4.64934546
H    1.49870142  -0.53212619  -4.52460029
H    2.31336821   0.99358680  -4.07805016
O    1.01254207  -0.07438740   2.98692342
H    0.07301632  -0.27211748   2.85801471
C    1.68878088  -1.30610349   3.18214205
H    2.74553579  -1.06499421   3.32574068
H    1.60696577  -1.97842577   2.31377210
H    1.33771473  -1.84714223   4.07478250
