45
Energy:   -372.56157606
O   -1.83563109  -0.02635551   1.89861315
H   -2.12928701   0.69386044   1.34068212
H   -1.78736161  -0.78062829   1.31126788
O    0.87672428  -3.15061676  -0.21133175
H   -0.00667350  -2.78378412  -0.17563826
H    1.40252095  -2.56347062   0.33183408
O   -1.94844377   0.15756229  -2.00142317
H   -2.18553822   0.83579684  -1.36895502
H   -1.02234723   0.31445686  -2.18570869
O    0.56586032   2.49637825  -0.16182350
H    0.79665753   1.98513636   0.61380284
H    0.72689356   1.90407628  -0.89631552
O    2.49642815  -1.51680496  -1.76719377
H    2.80690123  -1.24497508  -0.90351164
H    1.92431953  -2.26403062  -1.59232986
O    0.77524717   0.84526677   2.09831111
H   -0.13007882   0.50345088   2.14269597
C    0.98736341   1.65227938   3.24559971
H    2.01163518   2.02910749   3.17962147
H    0.89122586   1.08776848   4.18627093
H    0.30740530   2.51749100   3.28853144
O   -1.61160497  -1.88771602  -0.17964333
H   -1.77689890  -1.26359653  -0.90184556
C   -2.58197666  -2.91852339  -0.27101467
H   -2.38122681  -3.61259898   0.54962152
H   -2.51826317  -3.47994483  -1.21627859
H   -3.61158215  -2.54455992  -0.15769567
O   -2.14584597   2.05370805   0.04624646
H   -1.23317291   2.37141885  -0.02091764
C   -3.00241169   3.17963063  -0.05923944
H   -4.02624508   2.80383468   0.01839941
H   -2.90241223   3.70110969  -1.02403840
H   -2.84497211   3.91091893   0.74897312
O    0.79488168   0.61545313  -2.21204025
H    1.40150644  -0.13484405  -2.12553120
C    1.07020786   1.25104037  -3.45008635
H    0.37819837   2.09365486  -3.53138134
H    0.90463685   0.58871711  -4.31419946
H    2.09677390   1.64570882  -3.50644522
O    2.45853575  -1.14486024   1.03724544
H    1.96994459  -0.42168454   1.45762487
C    3.28702440  -1.73612680   2.02544793
H    3.83008758  -2.54857337   1.53504183
H    2.71222485  -2.16528787   2.86103370
H    4.02615386  -1.03155169   2.43780567
