45
Energy:   -380.60780813
O   -2.26642992  -0.74980155   1.66245108
H   -2.35141016   0.05754653   1.15530289
H   -2.13362051  -1.43308852   1.00540282
O    2.42255826  -0.92866396   1.18985803
H    2.01833874  -1.52322428   0.55792730
H    1.70795376  -0.67929137   1.77584914
O   -1.81204812  -0.04400248  -2.17237837
H   -1.98421413   0.57392449  -1.46191586
H   -0.87442836   0.04304152  -2.34420495
O    0.40065552   2.35916226   1.16960524
H    1.14419659   2.17908089   0.59432337
H    0.39960617   1.63410587   1.79452442
O    1.05480634  -2.24784725  -0.78007319
H    1.03915167  -1.52191559  -1.40377985
H    0.13224800  -2.43737542  -0.60920183
O    2.55091964   1.35896503  -0.33087042
H    2.65181552   0.56162772   0.20995905
C    3.72096319   2.14350985  -0.16347485
H    3.59055920   3.03746681  -0.77936522
H    4.63212552   1.62576371  -0.50185258
H    3.87124781   2.46593660   0.87875010
O   -1.74281403  -2.30693051  -0.59467896
H   -1.86922833  -1.59254545  -1.23662653
C   -2.48473167  -3.42832063  -1.04697994
H   -2.33120405  -4.22357596  -0.31248459
H   -2.14260987  -3.79756430  -2.02646405
H   -3.56538323  -3.22586499  -1.11007713
O   -2.02353508   1.56109459   0.09454576
H   -1.20221386   1.95924725   0.41909036
C   -3.03162889   2.55830526   0.13757510
H   -3.94975377   2.09299444  -0.23123076
H   -2.80362965   3.42155872  -0.50708538
H   -3.22174471   2.92704534   1.15770453
O    0.96504192   0.11064927  -2.30604929
H    1.51573082   0.68268969  -1.75113058
C    1.60638671  -0.01412707  -3.56527187
H    0.97285728  -0.66145067  -4.17772417
H    2.60111336  -0.48086975  -3.49146477
H    1.71294911   0.95055681  -4.08566288
O    0.21548703  -0.01733687   2.63114331
H   -0.66048098  -0.35536734   2.39273458
C    0.39282544  -0.22520036   4.02322004
H    1.38426188   0.16115042   4.27475941
H    0.36072353  -1.29020277   4.30163818
H   -0.34878809   0.31556152   4.63179485
