45
Energy:   -374.51975509
O   -1.30258164  -0.30704925   2.48301829
H   -1.84781703  -0.98223901   2.07920025
H   -1.23998921   0.37967664   1.81914963
O    0.85936151  -1.65679221  -1.06170269
H   -0.05639562  -1.40273750  -1.17605714
H    0.99549172  -1.64386647  -0.11432033
O   -1.66800680  -0.62565078  -1.37099543
H   -1.51954661   0.10700248  -0.77315715
H   -1.48637041  -0.26711885  -2.23972722
O    1.45276966   2.25356288  -0.75777249
H    1.71337184   1.63371095  -1.43902276
H    1.91932361   1.96017796   0.02484143
O    2.02716153   0.24761256  -2.57174183
H    2.88715754  -0.05526245  -2.86312718
H    1.68597971  -0.47268550  -2.04164984
O    2.39484871   1.06098586   1.53876148
H    2.10188604   0.14118734   1.61979748
C    1.95294459   1.75677776   2.69337317
H    2.29134906   2.79088444   2.58571179
H    2.38169303   1.35237647   3.62364824
H    0.85605949   1.76495438   2.79111542
O   -2.47565646  -2.18731537   0.82603724
H   -2.40495145  -1.77239830  -0.04646943
C   -1.98104727  -3.51220580   0.71396191
H   -2.06800146  -3.96492175   1.70541157
H   -0.92182021  -3.54677970   0.41459591
H   -2.56215431  -4.12465936   0.00686037
O   -0.95745486   1.43736187   0.33035753
H   -0.13322194   1.79007334  -0.03660021
C   -1.88206441   2.50952247   0.42037207
H   -2.80462947   2.09474763   0.83548739
H   -2.11750743   2.95148702  -0.56044965
H   -1.53749802   3.31311704   1.08991453
O   -0.58806603   0.66784819  -3.55808136
H    0.36462071   0.54931641  -3.42861530
C   -0.83501501   2.05876644  -3.68806748
H   -1.91254682   2.17431226  -3.83318660
H   -0.32404545   2.50198504  -4.55711564
H   -0.54867543   2.62730007  -2.78942601
O    1.07122896  -1.45483840   1.70362621
H    0.23975436  -1.12371206   2.07433987
C    1.53234413  -2.49912018   2.54587448
H    2.46943587  -2.86058980   2.11380505
H    0.83043511  -3.34621952   2.59611159
H    1.73897212  -2.15772295   3.57229064
