45
Energy:   -372.07087346
O   -1.38236045   0.06681508   1.58165158
H   -1.01781374   0.80806269   1.09803033
H   -1.25210070  -0.68458709   1.00315436
O    1.68514188  -2.03779142   0.49480302
H    0.76779496  -2.16014582   0.25039378
H    1.65128474  -1.54866533   1.31689865
O   -2.03101158  -0.76422351  -2.40964455
H   -2.63570832  -0.31208739  -1.82130227
H   -1.25884812  -0.19938620  -2.44053537
O   -0.27617278   2.04608954   0.12512646
H    0.57658233   2.17632282   0.53995156
H   -0.07441293   1.62892383  -0.71242806
O    2.57486798  -1.00362917  -1.84185015
H    3.00188474  -1.72535430  -2.30337085
H    2.32833812  -1.37334580  -0.99405035
O    2.15924556   1.89367684   1.42378752
H    1.99564936   1.11116783   1.97090652
C    3.34629001   1.66030220   0.68284519
H    3.51574050   2.55129430   0.07218587
H    3.26273506   0.79442582   0.00752749
H    4.22782561   1.51501199   1.32671092
O   -1.00376856  -2.04159257  -0.19108555
H   -1.35356756  -1.73482968  -1.04076812
C   -1.81969636  -3.11597661   0.24765643
H   -1.41171453  -3.44939422   1.20571108
H   -1.80546085  -3.97143352  -0.44571803
H   -2.86715609  -2.81635617   0.40838305
O   -3.42278459   0.43263284  -0.33412731
H   -2.91943437   0.38286486   0.49205971
C   -3.78327592   1.78955669  -0.53744336
H   -4.34945613   1.82754769  -1.47204588
H   -2.90883950   2.45094327  -0.64091353
H   -4.42432382   2.18426424   0.26632331
O    0.36302137   0.65638002  -2.19003366
H    1.15507693   0.10106885  -2.13806479
C    0.56018398   1.59023702  -3.23959156
H   -0.34114637   2.20756444  -3.28426442
H    0.69155759   1.10645608  -4.22013953
H    1.42041108   2.25444454  -3.06178543
O    1.10981069  -0.41420567   2.70975452
H    0.18051595  -0.24153637   2.49757565
C    1.22523555  -0.47177140   4.12251673
H    2.27801809  -0.66689382   4.34401473
H    0.62708148  -1.28350692   4.56531972
H    0.94318611   0.47401136   4.61110696
