45
Energy:   -372.18188598
O   -1.64394902   0.04070092   1.67810827
H   -1.51184653   0.79098204   1.09857482
H   -1.73511937  -0.70631585   1.08659685
O    1.23176905  -1.85106724   0.11599698
H    0.30130149  -1.94660692  -0.08731099
H    1.24824903  -1.51034816   1.01035192
O   -2.16275604   0.16164713  -2.11853362
H   -1.87018742   0.85760281  -1.53007704
H   -1.40635336  -0.01288462  -2.67855639
O    1.66304984   2.27968693  -0.67463907
H    1.97565950   1.47099733  -1.08025979
H    1.93395023   2.20933878   0.24072751
O    2.44520858  -0.18569778  -1.62975753
H    2.05103293  -0.78674007  -0.99761391
H    3.38203885  -0.37851666  -1.59231727
O    2.09668591   1.81414309   2.00997230
H    1.81778262   0.93853268   2.31647292
C    1.31110077   2.77908035   2.69135754
H    1.63823303   3.75938794   2.33433273
H    1.45271315   2.74865909   3.78305247
H    0.23538960   2.67944082   2.47759419
O   -1.51996329  -1.86384980  -0.37526651
H   -1.80932120  -1.23451264  -1.05248880
C   -2.38689102  -2.98537596  -0.43138378
H   -2.04678976  -3.68413626   0.33773934
H   -2.35050919  -3.50278351  -1.40284820
H   -3.43477199  -2.72405057  -0.21590325
O   -1.04686381   1.95443600  -0.26197987
H   -0.10986434   2.11704929  -0.44640380
C   -1.74544287   3.17001240  -0.47853256
H   -2.79902737   2.96896548  -0.26634153
H   -1.66833777   3.52541866  -1.51801249
H   -1.41056246   3.97796071   0.19068488
O    0.20850095  -0.54748288  -3.31418093
H    1.05041811  -0.35991750  -2.87325237
C    0.20634772  -1.92032336  -3.67172555
H   -0.74884064  -2.11443906  -4.16712386
H    0.27976541  -2.58729125  -2.79848961
H    1.01402337  -2.17795240  -4.37462288
O    0.84645148  -0.65861676   2.61813195
H   -0.06722162  -0.40312539   2.42230317
C    0.82992143  -1.44461240   3.79900934
H    1.86677661  -1.72378507   4.00511406
H    0.24332471  -2.36975217   3.68588101
H    0.44492027  -0.89352923   4.67128153
