45
Energy:   -373.74536561
O   -1.44242316  -0.57976001   1.73569270
H   -1.87924394  -1.26120835   1.22476451
H   -1.57580144   0.22196057   1.23003848
O    0.48080962  -2.24782407   0.56909825
H   -0.24436263  -2.65378079   0.09417068
H    0.06801165  -1.56868727   1.10258010
O   -2.10698111  -0.14425252  -2.01025649
H   -2.15366445   0.52224462  -1.32481205
H   -1.21696472  -0.07198328  -2.35504602
O    0.65401088   2.51074516  -1.03411332
H    1.28746156   2.19233137  -0.39100777
H    0.64091365   1.83571059  -1.71263276
O    2.39068417  -0.90696393  -0.84909503
H    2.50101501  -0.14878966  -0.27530872
H    1.80600412  -1.49068419  -0.36571967
O    2.28672720   1.30086413   0.86884044
H    1.86887770   1.01991276   1.69642210
C    3.48016848   1.99164306   1.20209132
H    3.93800117   2.30099838   0.25860114
H    4.20224304   1.35780676   1.74027085
H    3.29468391   2.89506883   1.80391745
O   -2.23425047  -2.34656397  -0.34498864
H   -2.25796023  -1.65979013  -1.02777910
C   -3.27001719  -3.27304032  -0.63023004
H   -3.22901477  -4.03962241   0.14833011
H   -3.14035479  -3.76906321  -1.60487166
H   -4.27051553  -2.81356128  -0.60455077
O   -1.69801239   1.64878506   0.11435828
H   -0.90263301   2.07084509  -0.24293747
C   -2.53942266   2.67353799   0.61878267
H   -3.43038399   2.18072750   1.01729357
H   -2.86095285   3.38191697  -0.16070107
H   -2.07107166   3.24471777   1.43559252
O    0.59314625   0.19600086  -2.62162200
H    1.25620130  -0.27949430  -2.09942891
C    1.02164749   0.18528065  -3.97395537
H    0.26352815   0.72491126  -4.54801032
H    1.10188106  -0.83261089  -4.38655291
H    1.98669026   0.69580212  -4.11830772
O    0.88543012   0.29014024   3.06823258
H   -0.01260932   0.01195187   2.83465248
C    1.51533238  -0.79721726   3.72657185
H    2.52564887  -0.46678752   3.98262259
H    1.59986949  -1.69002214   3.08740814
H    1.00357156  -1.08423723   4.65850411
