45
Energy:   -372.84567323
O   -0.89101628   0.76190892   2.72085371
H   -1.14625884   1.29680522   1.96920949
H   -1.09330751  -0.13554807   2.45650346
O    1.44409066  -2.11867363   1.59747355
H    0.48765052  -2.08080920   1.60199022
H    1.72078913  -1.21204758   1.73051117
O   -2.29840569  -0.31490143  -0.77306272
H   -2.09427924   0.54288434  -0.40054720
H   -1.85175381  -0.32134382  -1.61963961
O    1.41594430   1.92651268  -0.52223219
H    1.69874962   1.48922563   0.28090729
H    1.67409847   1.32930286  -1.22432101
O    2.03799091   0.10779791  -2.50621351
H    2.87422410   0.06422327  -2.96994528
H    1.97378067  -0.73009403  -2.04790576
O    1.75591447   0.64657753   1.94520771
H    0.88020014   0.75299931   2.34548522
C    2.72233197   0.97422851   2.93071054
H    3.70273731   0.84902412   2.46314831
H    2.67577102   0.31135193   3.80889278
H    2.63993216   2.01631358   3.27718752
O    1.72174238  -2.22206531  -1.16047120
H    1.71318398  -2.29979341  -0.19491003
C    0.58932396  -2.91659834  -1.65825244
H    0.61445193  -2.81895399  -2.74697618
H   -0.36141270  -2.49229767  -1.29930108
H    0.60617142  -3.98967350  -1.41126416
O   -1.23590481   2.04670466   0.26243307
H   -0.33328006   2.08687422  -0.08696389
C   -1.74014049   3.37200522   0.30554437
H   -2.75737030   3.30838594   0.70137428
H   -1.78981988   3.84066953  -0.68977621
H   -1.15578966   4.02791675   0.96969156
O   -0.73316760   0.00694418  -3.03977262
H    0.23252829   0.03320587  -2.96790436
C   -1.16200012   1.26385502  -3.53858279
H   -2.25181544   1.21694638  -3.61333140
H   -0.76025537   1.48339312  -4.54017229
H   -0.90134936   2.09845066  -2.86903919
O   -1.29903604  -1.68940971   1.40819636
H   -1.69456469  -1.32096602   0.60431228
C   -2.19073010  -2.66853433   1.91685189
H   -1.72983303  -3.07323037   2.82199287
H   -2.35323187  -3.50135002   1.21486289
H   -3.17128850  -2.24907121   2.19132092
