45
Energy:   -375.12042459
O   -1.19898944  -1.26331307   2.50553323
H   -1.57694443  -1.67794917   1.72999549
H   -1.27475632  -0.32419561   2.33656689
O    1.46891572   0.88951265   0.75496594
H    1.69610887   0.08226822   1.21645436
H    0.55858697   1.05721663   0.99870513
O    1.38056567  -0.19753729  -1.77991635
H    1.48793887   0.21951517  -0.92506544
H    1.15532895  -1.10554162  -1.57736165
O   -0.38737980   1.72113292  -2.57699827
H    0.22958812   0.99351148  -2.49857958
H    0.02051545   2.43545842  -2.08751651
O   -1.94909290  -2.09671535   0.00638218
H   -2.15064304  -1.27466556  -0.44065645
H   -1.08502449  -2.34357845  -0.32327863
O    0.74522354  -2.63097875  -0.54851079
H    1.14964979  -2.43391327   0.30940988
C    1.00766367  -3.99316400  -0.84534456
H    0.54523887  -4.19820334  -1.81467803
H    0.56968954  -4.68157879  -0.10572231
H    2.08407841  -4.21068138  -0.92777528
O   -1.21828208   1.28064295   1.30685207
H   -1.73214524   1.05378977   0.51760840
C   -1.44728909   2.65170767   1.59017357
H   -0.86115517   2.89042249   2.48177183
H   -2.50446154   2.87010338   1.80804294
H   -1.11600823   3.31526053   0.77609253
O   -2.34677480   0.43210151  -1.13195906
H   -1.73845811   0.88673419  -1.73336010
C   -3.62565597   0.41428033  -1.74570096
H   -4.29842459  -0.10129165  -1.05501064
H   -3.63135441  -0.13386668  -2.70083431
H   -4.02660355   1.42460907  -1.92248953
O    1.18271160   3.25171403  -0.81128297
H    1.45695663   2.56995556  -0.18007910
C    2.30183565   3.55762947  -1.62768415
H    1.97544742   4.32697017  -2.33271664
H    2.65472752   2.69058905  -2.20775791
H    3.15057924   3.95962331  -1.05252103
O    1.48124231  -1.63489663   2.00070019
H    0.56730945  -1.57455288   2.31615008
C    2.29875054  -1.96817492   3.11116840
H    3.32454504  -2.03210182   2.73814804
H    2.03600799  -2.94075551   3.55595000
H    2.27083236  -1.20452515   3.90416080
