120
Energy:   -598.40790401
    C      5.03303519     -2.94468588      0.53287198
    H      5.96477156     -3.22282836      0.97941905
    H      5.07075835     -3.13546838     -0.51930580
    H      4.24248518     -3.51732356      0.97106813
    C      4.77553876     -1.44561159      0.77385305
    N      4.58382096     -0.32948265      0.95327440
    C      1.23457752     -1.68702295     -4.48707957
    H      2.28330573     -1.89467114     -4.53125584
    H      0.76973017     -2.00315963     -5.39750455
    H      0.80092994     -2.21452659     -3.66331457
    C      1.01835351     -0.17395066     -4.29877285
    N      0.85736490      0.95260044     -4.15856994
    C      1.23749333      5.53918136      1.84222687
    H      0.81789241      6.15498323      2.61009619
    H      2.16771086      5.95714734      1.51834592
    H      1.40337202      4.55416957      2.22580883
    C      0.26384405      5.46900893      0.65114210
    N     -0.46108209      5.41676237     -0.23567465
    C     -1.79959172     -0.45951125     -2.25796356
    H     -1.18808081     -1.30376540     -2.49918861
    H     -1.36051318      0.42702808     -2.66558732
    H     -2.77651029     -0.59667633     -2.67234857
    C     -1.90562289     -0.32295490     -0.72769896
    N     -1.98456793     -0.22128248      0.41165259
    C      2.45189799     -4.55363249     -2.07213575
    H      2.66353145     -3.52206192     -2.26180283
    H      1.65380907     -4.87666150     -2.70743524
    H      3.32513960     -5.13923962     -2.27066151
    C      2.03913958     -4.73056651     -0.59906927
    N      1.73182217     -4.86230193      0.49769568
    C      0.52592477      2.16135403     -0.54093340
    H      0.70620492      1.30610574     -1.15814454
    H      1.02711338      3.01154871     -0.95430741
    H     -0.52566860      2.35393399     -0.49662273
    C      1.05862845      1.89145580      0.87856712
    N      1.45525056      1.69050431      1.93544978
    C     -4.12867602     -3.32113513     -3.99336418
    H     -4.45250950     -2.53312263     -4.64071908
    H     -4.68753362     -4.20876476     -4.20476646
    H     -3.08742606     -3.50873091     -4.15306835
    C     -4.35688272     -2.90776249     -2.52753855
    N     -4.52679297     -2.59998778     -1.43616475
    C      1.17694239     -4.35031158      4.17751831
    H      0.56631338     -3.56190958      4.56540320
    H      1.24745514     -5.13562837      4.90084713
    H      0.73889533     -4.73147796      3.27878251
    C      2.58476886     -3.80615633      3.87170842
    N      3.63295966     -3.40100801      3.64401906
    C      0.75335999      2.84069985      5.20862087
    H      0.06238082      3.65206805      5.30416988
    H      0.83161404      2.32684409      6.14388963
    H      0.40579714      2.16283564      4.45722265
    C      2.13545925      3.38812305      4.80646486
    N      3.16449498      3.79570451      4.50704143
    C      4.85559221      2.99772449      1.68386062
    H      4.19463028      2.41405071      2.28995833
    H      5.26144853      3.79768604      2.26716265
    H      5.65112819      2.37844062      1.32537897
    C      4.07777507      3.57773865      0.48795758
    N      3.49865486      4.00958556     -0.40244659
    C      3.85318193      0.96991222     -2.11265986
    H      3.26013709      0.95789603     -1.22212428
    H      3.29925119      1.43038555     -2.90387673
    H      4.75087222      1.52471877     -1.93590879
    C      4.21196705     -0.47404010     -2.50999467
    N      4.47909888     -1.54912823     -2.80582849
    C      1.12753318     -1.63781163      1.58448596
    H      0.70579530     -2.59838405      1.79505181
    H      0.49254952     -0.87436019      1.98302923
    H      2.09585710     -1.56707261      2.03420128
    C      1.25475990     -1.45591578      0.06056757
    N      1.34948597     -1.32048604     -1.07405894
    C     -1.73608858     -3.97506157      0.35900241
    H     -1.64889412     -2.98269857      0.74953151
    H     -1.10456253     -4.63461036      0.91673832
    H     -2.75188781     -4.30172264      0.43864891
    C     -1.30851653     -3.98391753     -1.12042441
    N     -0.99016970     -3.99051119     -2.22192493
    C     -5.40212106      1.10994637     -1.48622786
    H     -4.74682225      0.56039943     -0.84320235
    H     -6.40819986      1.01679656     -1.13405225
    H     -5.11856745      2.14169049     -1.48693491
    C     -5.30536515      0.55000798     -2.91755846
    N     -5.23332598      0.13310840     -3.98324916
    C     -1.76520970      0.18553429      3.82710206
    H     -2.74568228      0.58852484      3.68159494
    H     -1.08938836      0.62985774      3.12657278
    H     -1.43672069      0.39738201      4.82315156
    C     -1.79951834     -1.33886954      3.61119497
    N     -1.82506268     -2.47385749      3.45044233
    C     -4.85013624     -1.88338181      1.81387661
    H     -5.65906209     -2.28946388      1.24323092
    H     -4.85000286     -2.31790169      2.79167595
    H     -3.92367682     -2.10320258      1.32576714
    C     -5.01948900     -0.35716307      1.93039268
    N     -5.14557982      0.77917616      2.01714419
    C      3.65325920      0.08222561      4.28528653
    H      4.03460274      0.82514079      4.95428154
    H      3.56850261      0.49696008      3.30258071
    H      4.32042266     -0.75401774      4.26317168
    C      2.26617659     -0.38036001      4.76862531
    N      1.23343054     -0.72477603      5.12849300
    C     -2.51345339      1.32692055     -5.84231927
    H     -1.60513887      1.88458796     -5.74812812
    H     -3.18699532      1.60743622     -5.05966269
    H     -2.96271387      1.53455482     -6.79097733
    C     -2.20475063     -0.17827734     -5.73896589
    N     -1.97490740     -1.29896559     -5.66201460
    C     -0.44823121      4.24122106     -3.51692265
    H     -0.32314375      5.13674225     -2.94482553
    H     -0.62025839      4.49412886     -4.54227302
    H      0.43552567      3.64285181     -3.44058718
    C     -1.65262454      3.44954481     -2.97444182
    N     -2.54935011      2.86010586     -2.57054019
    C     -3.20921658      3.26598316      0.78940092
    H     -4.21292761      3.37579682      1.14352705
    H     -3.09236525      2.30098484      0.34216149
    H     -3.00262158      4.02340950      0.06240510
    C     -2.23014220      3.40668230      1.96974710
    N     -1.50117682      3.51143921      2.84856849
