120
Energy:   -598.40774652
    C      5.20179970     -2.68346999     -0.04243711
    H      6.16966626     -2.95278710      0.32580576
    H      5.19359269     -2.75558340     -1.10997230
    H      4.46777768     -3.34657387      0.36548936
    C      4.87704977     -1.23768880      0.37691267
    N      4.63525868     -0.16123899      0.68913764
    C      1.08018288     -1.11342845     -4.70508692
    H      2.13430823     -1.25308750     -4.82431475
    H      0.58256146     -1.35481544     -5.62105872
    H      0.72168618     -1.75241063     -3.92529144
    C      0.79519997      0.35465229     -4.33749520
    N      0.58301723      1.44770514     -4.06380646
    C      1.01465543      5.33867209      2.47104065
    H      1.58381406      4.43285318      2.44981009
    H      0.47867644      5.40155578      3.39498397
    H      1.67436621      6.17655400      2.38366404
    C      0.01740939      5.34594509      1.29756400
    N     -0.72508562      5.35136017      0.42385730
    C     -1.89110264     -0.31300616     -2.21176185
    H     -1.24812081     -1.08621414     -2.57730796
    H     -1.52423656      0.63862412     -2.53534828
    H     -2.88008251     -0.46207305     -2.59202095
    C     -1.92113710     -0.35525608     -0.67263454
    N     -1.94349912     -0.38671306      0.47331571
    C      2.57403793     -4.15179113     -2.68495203
    H      2.72289413     -3.09552359     -2.76886212
    H      1.76024980     -4.44832073     -3.31321803
    H      3.46375403     -4.66262220     -2.98885328
    C      2.25051618     -4.51003159     -1.22255761
    N      2.00963953     -4.77675790     -0.13373849
    C      0.38100151      2.23023960     -0.32792679
    H      0.57927762      1.45768201     -1.04118798
    H      0.81178971      3.14875664     -0.66799600
    H     -0.67642325      2.35137657     -0.21802766
    C      0.99752143      1.84581975      1.02991140
    N      1.45654853      1.55960169      2.04088366
    C     -4.15566916     -3.09701043     -4.14461508
    H     -3.11594001     -3.20462343     -4.37326965
    H     -4.55476791     -2.26284158     -4.68292875
    H     -4.67724794     -3.98715271     -4.42834274
    C     -4.32701483     -2.86156781     -2.63239570
    N     -4.45458946     -2.68627009     -1.50647964
    C      1.62760595     -4.70214104      3.60156444
    H      0.99849076     -3.99912418      4.10642241
    H      1.77941401     -5.55762046      4.22607093
    H      1.16135308     -5.00593128      2.68766136
    C      2.98562944     -4.04547688      3.29146059
    N      3.99673965     -3.55656057      3.06057417
    C      0.87846978      2.29871493      5.44544385
    H      0.15566444      3.05405713      5.67328323
    H      1.03929468      1.68703316      6.30850808
    H      0.51902812      1.69232064      4.64046761
    C      2.20463114      2.96470693      5.03392146
    N      3.19201856      3.46056825      4.72752433
    C      4.78750419      3.07767107      1.76127786
    H      4.19902098      2.38991777      2.33187675
    H      5.18066764      3.83335932      2.40877833
    H      5.59458887      2.55372654      1.29330826
    C      3.90701843      3.73398514      0.68164984
    N      3.25145677      4.22264081     -0.12218230
    C      3.67963585      1.41704052     -2.17819067
    H      3.13493403      1.27412915     -1.26836846
    H      3.06232218      1.92846735     -2.88689761
    H      4.55527558      1.99980499     -1.98187531
    C      4.09180359      0.04790608     -2.75019473
    N      4.39868122     -0.97147674     -3.17607775
    C      1.29419995     -1.72906736      1.33375744
    H      0.93501923     -2.72940440      1.45710740
    H      0.64169447     -1.05054959      1.84243153
    H      2.27962815     -1.65089029      1.74329218
    C      1.33199191     -1.37840412     -0.16531129
    N      1.36012974     -1.11731940     -1.28143610
    C     -1.50219049     -4.08720169     -0.01099273
    H     -1.44439424     -3.14138655      0.48599168
    H     -0.80903057     -4.76833380      0.43676555
    H     -2.49441540     -4.47741758      0.07912044
    C     -1.15494324     -3.90652789     -1.50041420
    N     -0.89640187     -3.77200803     -2.60935619
    C     -5.52095789      0.95508585     -1.09955582
    H     -4.80426706      0.37772515     -0.55374536
    H     -6.50032218      0.76692647     -0.71181785
    H     -5.29155373      1.99540690     -0.99953119
    C     -5.47307489      0.55957715     -2.58713106
    N     -5.43742381      0.26510294     -3.69469844
    C     -1.56741644     -0.34037544      3.90187116
    H     -2.57531685      0.01564624      3.85406418
    H     -0.95915442      0.21833186      3.22160462
    H     -1.19319407     -0.21926862      4.89695400
    C     -1.53083629     -1.83120730      3.51757668
    N     -1.50360070     -2.94119939      3.23145197
    C     -4.63969394     -2.35179795      1.81549759
    H     -5.45518622     -2.74025726      1.24193688
    H     -4.56537543     -2.88807684      2.73841731
    H     -3.72998115     -2.46408608      1.26348934
    C     -4.88226457     -0.85925260      2.10716154
    N     -5.06286943      0.25201526      2.32431862
    C      3.86449252     -0.16685669      4.08290265
    H      4.24512774      0.51513307      4.81427600
    H      3.70152106      0.35244806      3.16167414
    H      4.57156418     -0.95484106      3.92788848
    C      2.53356243     -0.76171540      4.57925759
    N      1.54262449     -1.20461474      4.94881639
    C     -2.88395817      1.81326179     -5.53171573
    H     -2.00172518      2.40685961     -5.41252364
    H     -3.53230613      1.96579888     -4.69429323
    H     -3.38851689      2.10070303     -6.43043545
    C     -2.49438970      0.32568212     -5.61504123
    N     -2.20433827     -0.78188856     -5.67708085
    C     -0.84966655      4.57707020     -2.98440955
    H     -0.72132216      5.38938632     -2.29988751
    H     -1.10017790      4.96141951     -3.95106293
    H      0.05989767      4.01711314     -3.04797134
    C     -1.98293201      3.66068450     -2.48686897
    N     -2.82669966      2.97839369     -2.11642739
    C     -3.32429415      2.96395980      1.29693496
    H     -4.32145216      2.97666562      1.68476822
    H     -3.16820266      2.06141235      0.74381415
    H     -3.18138146      3.80629081      0.65276609
    C     -2.31947274      3.03233971      2.46194917
    N     -1.57133752      3.08325165      3.32935521
