120
Energy:   -595.98466319
    C      4.89892161     -2.91202428      0.34014037
    H      5.90091282     -3.18926542      0.59322364
    H      4.72006267     -3.12508133     -0.69306594
    H      4.21187068     -3.46814784      0.94312187
    C      4.70306586     -1.40595653      0.59509220
    N      4.55724235     -0.28462062      0.78491543
    C      1.07497702     -1.58957642     -4.62420488
    H      2.11945267     -1.77900416     -4.75869627
    H      0.54084186     -1.89970330     -5.49794399
    H      0.71960522     -2.13657038     -3.77602590
    C      0.85193755     -0.08332611     -4.39384991
    N      0.68587453      1.03814571     -4.22234017
    C      1.27516647      5.50436166      1.92320463
    H      0.73682013      5.73141375      2.81960339
    H      1.98798698      6.27847839      1.72947985
    H      1.78516512      4.57102250      2.04015969
    C      0.29003550      5.40673746      0.74354938
    N     -0.44343928      5.33405181     -0.13475757
    C     -1.88080056     -0.45937475     -2.28960155
    H     -1.26736426     -1.27625800     -2.60787476
    H     -1.48649700      0.45577421     -2.67937863
    H     -2.87811944     -0.60045751     -2.65064146
    C     -1.89579904     -0.39775011     -0.75090813
    N     -1.90696608     -0.35186776      0.39471906
    C      2.39058338     -4.54288252     -2.44816513
    H      2.55557431     -3.50131121     -2.62929319
    H      1.57286689     -4.88406861     -3.04802419
    H      3.27265487     -5.09305723     -2.70145698
    C      2.06049609     -4.75907377     -0.95957395
    N      1.81473109     -4.92003798      0.14874986
    C      0.49807199      2.10788669     -0.58855993
    H      0.69217273      1.24045468     -1.18419975
    H      0.99900803      2.95218019     -1.01415441
    H     -0.55527278      2.29409321     -0.56227283
    C      1.01376858      1.87319023      0.84342282
    N      1.39772813      1.69844805      1.90959907
    C     -4.33503926     -3.23266405     -3.85658831
    H     -4.70580680     -2.41890873     -4.44415439
    H     -4.90532038     -4.11327706     -4.06682451
    H     -3.30726407     -3.40734773     -4.09755067
    C     -4.45986087     -2.88502440     -2.36154107
    N     -4.55279623     -2.62619088     -1.24841045
    C      0.90530956     -4.20703153      4.42114586
    H      1.36019225     -3.40806984      4.96854165
    H      1.53815232     -4.48550758      3.60453076
    H      0.76613626     -5.04830453      5.06751233
    C     -0.45989891     -3.74533668      3.87833492
    N     -1.47635866     -3.40158389      3.47418750
    C      1.09117047      2.94231426      5.22835602
    H      0.51945348      3.75437205      5.62660472
    H      1.23808265      2.20323582      5.98801315
    H      0.56605823      2.50695388      4.40396682
    C      2.45834333      3.46387301      4.74834056
    N      3.47626567      3.85219720      4.39094723
    C      4.91773472      2.91952159      1.54927589
    H      4.30829873      2.26117671      2.13243107
    H      5.28865477      3.70701296      2.17150958
    H      5.74023282      2.37295666      1.13737452
    C      4.07723548      3.52029320      0.40724502
    N      3.45144560      3.96759497     -0.44304887
    C      3.76423537      0.99897880     -2.27630444
    H      3.20560008      0.97524774     -1.36401960
    H      3.17979106      1.46758944     -3.04032539
    H      4.66711214      1.55352371     -2.12733274
    C      4.10994849     -0.43944793     -2.70410227
    N      4.36734763     -1.51042201     -3.02261720
    C      1.19396553     -1.73721109      1.50282007
    H      0.17209721     -1.69166010      1.81684304
    H      1.75381690     -0.97172661      1.99829867
    H      1.60126359     -2.69481642      1.75181689
    C      1.27271996     -1.52625970     -0.02062906
    N      1.33135622     -1.36919680     -1.15490618
    C     -1.64564039     -4.09601993      0.17372010
    H     -1.50078840     -3.13509942      0.62154803
    H     -1.00906953     -4.81152931      0.65092337
    H     -2.66683442     -4.39350959      0.29017502
    C     -1.30054851     -4.02106564     -1.32524403
    N     -1.04361192     -3.96525877     -2.44129095
    C     -5.41342311      1.06205588     -1.16473887
    H     -4.75251059      0.45557232     -0.58141006
    H     -6.40584348      0.98788554     -0.77167443
    H     -5.08974388      2.08119223     -1.12611289
    C     -5.40215572      0.57489333     -2.62561043
    N     -5.39376664      0.21217867     -3.71329570
    C     -1.45063097      0.20153071      3.68275891
    H     -2.01580243     -0.64648074      3.35663320
    H     -1.11490195      0.75536931      2.83102661
    H     -2.06668838      0.82684523      4.29460375
    C     -0.23374106     -0.27506661      4.49739621
    N      0.67228880     -0.62991498      5.10393071
    C     -4.45561274     -2.05318891      2.13403054
    H     -5.21594758     -2.52370495      1.54631821
    H     -4.46278923     -2.46436001      3.12184931
    H     -3.50008961     -2.22365326      1.68367895
    C     -4.72620966     -0.53887463      2.20634611
    N     -4.92768136      0.58860119      2.26018835
    C      3.84432310      0.08752675      4.29820372
    H      3.48102307      0.22679951      5.29495663
    H      3.21791297      0.61915768      3.61272725
    H      4.84533663      0.45898498      4.22827676
    C      3.82805466     -1.41269789      3.95084026
    N      3.81594207     -2.52968333      3.69221238
    C     -2.79206370      1.41071084     -5.74224995
    H     -1.88377502      1.97507825     -5.70481641
    H     -3.40609786      1.66713939     -4.90433256
    H     -3.31416755      1.63490279     -6.64891673
    C     -2.46413044     -0.09329326     -5.69717847
    N     -2.21996922     -1.21309268     -5.66362071
    C     -0.63860595      4.31062620     -3.47829700
    H      0.03488642      4.60641055     -2.70123855
    H     -1.03241084      5.18137820     -3.95955342
    H     -0.11559859      3.71269665     -4.19512518
    C     -1.79388852      3.49225599     -2.87233298
    N     -2.65404891      2.88294217     -2.42116523
    C     -3.11081456      3.17916762      1.01937206
    H     -2.91348600      2.20095572      0.63328514
    H     -2.93240601      3.90680887      0.25542986
    H     -4.13090109      3.23819339      1.33692288
    C     -2.18343143      3.45484953      2.21752064
    N     -1.49295253      3.66010725      3.10959671
