120
Energy:   -595.67272123
    C      4.84077581     -3.17644650      0.77970375
    H      5.72723712     -3.50460113      1.28110286
    H      4.90677959     -3.42290669     -0.25943049
    H      3.98853220     -3.66147596      1.20787000
    C      4.69653156     -1.65134811      0.93740130
    N      4.58913516     -0.51584304      1.05481430
    C      1.22181399     -1.96985792     -4.36690124
    H      2.25664870     -2.22708283     -4.27828605
    H      0.86146545     -2.26750193     -5.32942712
    H      0.66283404     -2.47275397     -3.60562857
    C      1.05557107     -0.44746439     -4.20478641
    N      0.93179567      0.68602680     -4.08408454
    C      1.44964378      5.55268571      1.55009839
    H      1.04130421      6.21091560      2.28826665
    H      2.39968644      5.92430197      1.22726812
    H      1.57280229      4.57685255      1.97138298
    C      0.49273837      5.47494724      0.34598512
    N     -0.21972121      5.41706741     -0.55053194
    C     -1.83986167     -0.51995019     -2.23248721
    H     -1.18257552     -1.34038599     -2.43188680
    H     -1.46138864      0.36296485     -2.70378148
    H     -2.81319023     -0.74083107     -2.61815836
    C     -1.92971525     -0.29196985     -0.71210854
    N     -1.99661533     -0.12222812      0.41988249
    C      2.17315375     -4.77538668     -1.79836691
    H      2.53242062     -3.79043063     -2.01211697
    H      1.33335765     -4.99249127     -2.42487087
    H      2.95042283     -5.48677491     -1.98458895
    C      1.74606942     -4.85665165     -0.32100610
    N      1.42808572     -4.91715711      0.77895618
    C      0.61872508      2.08842289     -0.65345313
    H      0.74847976      1.19059962     -1.22088355
    H      1.16248425      2.88495775     -1.11687224
    H     -0.42060248      2.34012665     -0.61681248
    C      1.14522428      1.87193683      0.77746698
    N      1.53722687      1.71075313      1.84285205
    C     -4.05525511     -3.25280601     -4.04587726
    H     -3.78223636     -3.41337796     -3.02383147
    H     -4.38771977     -4.17473495     -4.47531103
    H     -4.84397307     -2.53142892     -4.09525510
    C     -2.83453099     -2.73305675     -4.82772976
    N     -1.92564640     -2.34607980     -5.40985449
    C      0.93209895     -4.14709321      4.47012989
    H      0.36972451     -3.31423463      4.83752852
    H      0.96590416     -4.91214393      5.21742749
    H      0.46514221     -4.53119612      3.58734144
    C      2.36491470     -3.69186397      4.13635548
    N      3.43171116     -3.35292510      3.88784526
    C      0.82349071      3.12307401      4.99100241
    H      0.18280357      3.98004486      4.99559942
    H      0.83130248      2.67836468      5.96417848
    H      0.46327419      2.41227082      4.27692820
    C      2.25280319      3.55275162      4.61147246
    N      3.31699130      3.87266613      4.32889516
    C      4.98102166      2.85617229      1.55289933
    H      4.29398174      2.33690560      2.18790990
    H      5.42877200      3.66234655      2.09557952
    H      5.74308326      2.18082609      1.22416122
    C      4.22861944      3.41523451      0.33103996
    N      3.66842179      3.83148176     -0.57868988
    C      3.92624817      0.66004735     -2.06885336
    H      3.30764709      0.72168004     -1.19797203
    H      3.41881613      1.10528982     -2.89901657
    H      4.84451305      1.17992327     -1.89160285
    C      4.22527968     -0.81770928     -2.38256581
    N      4.44792222     -1.91796626     -2.61613898
    C      1.03660786     -1.60179214      1.69812109
    H      0.57300137     -2.52848441      1.96497431
    H      0.43235999     -0.78856762      2.04228598
    H      2.00431469     -1.54369129      2.15096418
    C      1.18074569     -1.52210508      0.16695347
    N      1.28806285     -1.46277443     -0.97307041
    C     -1.98419865     -3.84655534      0.61758112
    H     -1.85660774     -2.84106788      0.96053259
    H     -1.37265878     -4.50270324      1.20100893
    H     -3.01069414     -4.13072404      0.71982713
    C     -1.57060753     -3.94035282     -0.86287301
    N     -1.26267015     -4.01018931     -1.96513840
    C     -5.54715057      1.14321326     -1.64750259
    H     -5.89349237      1.58897304     -0.73852197
    H     -6.27312344      1.29551210     -2.41864949
    H     -4.62072818      1.59444858     -1.93564724
    C     -5.33717438     -0.36698833     -1.43116681
    N     -5.18083756     -1.49140205     -1.27009500
    C     -1.75726062      0.48383093      3.81454424
    H     -2.71761315      0.92039838      3.63556918
    H     -1.05964039      0.84681298      3.08896230
    H     -1.42209419      0.74909036      4.79546217
    C     -1.86151180     -1.04870065      3.70464136
    N     -1.93913155     -2.18974007      3.62281368
    C     -4.96097784     -1.54124965      2.07400091
    H     -4.89161611     -1.85058806      3.09595927
    H     -4.09285317     -1.87030769      1.54204278
    H     -5.83508523     -1.96997630      1.63012162
    C     -5.05219641     -0.00538739      2.00762113
    N     -5.12011278      1.13813188      1.95819837
    C      3.63696114      0.16162169      4.32396333
    H      4.05422981      0.91991856      4.95306817
    H      3.57780366      0.52453598      3.31912867
    H      4.25940220     -0.70822062      4.35295596
    C      2.22569637     -0.20016220      4.82300659
    N      1.17494560     -0.46952674      5.19456698
    C     -2.27267723      1.06462182     -5.93645414
    H     -1.50637504      1.23301612     -5.20890724
    H     -2.45341585      1.96848265     -6.47984006
    H     -1.95915811      0.29790238     -6.61376215
    C     -3.56668651      0.62487807     -5.22668980
    N     -4.53013524      0.29746886     -4.69823799
    C     -0.09273469      4.11317634     -3.76030466
    H      0.05254248      5.03546519     -3.23764033
    H     -0.21531011      4.31059414     -4.80476652
    H      0.75908918      3.48236374     -3.61411766
    C     -1.35140010      3.40953315     -3.21970533
    N     -2.28853371      2.88563880     -2.81720455
    C     -3.11755050      3.41401351      0.47782372
    H     -4.11235121      3.61333369      0.81774017
    H     -3.06695992      2.41949729      0.08631742
    H     -2.85589415      4.11291935     -0.28896547
    C     -2.13518155      3.55259964      1.65567988
    N     -1.40376321      3.65578331      2.53264733
