120
Energy:   -595.66570311
    C      5.05541044     -2.56459760      0.73663806
    H      6.04718953     -2.77366493      1.07951595
    H      4.99319261     -2.75742397     -0.31400271
    H      4.35933475     -3.18974928      1.25583274
    C      4.71936513     -1.08641735      1.00803578
    N      4.46916412      0.01415503      1.21010372
    C      1.62077606     -1.34575539     -4.53992104
    H      2.68493147     -1.45233146     -4.57331217
    H      1.20139000     -1.66017776     -5.47274096
    H      1.22642345     -1.95002252     -3.74982842
    C      1.26036249      0.12986322     -4.28644171
    N      0.99201820      1.22852835     -4.09771483
    C      0.69852058      5.52416479      2.19597225
    H      0.06484195      5.68117018      3.04373453
    H      1.36426266      6.35504447      2.08955068
    H      1.26612276      4.62800219      2.33604168
    C     -0.16455118      5.39215279      0.92739826
    N     -0.80714734      5.29386386     -0.01711273
    C     -1.62918068     -0.52681174     -2.47857990
    H     -1.27846738      0.42639479     -2.81517711
    H     -2.57588635     -0.73831696     -2.93014718
    H     -0.92518116     -1.28375600     -2.75483912
    C     -1.78463051     -0.50487323     -0.94660273
    N     -1.90036998     -0.48853902      0.19402391
    C      2.94343852     -4.27425818     -2.32227621
    H      2.21732818     -4.66173805     -3.00603296
    H      3.88749792     -4.74567670     -2.49952048
    H      3.03976616     -3.21818983     -2.46489357
    C      2.49111421     -4.55803605     -0.87781339
    N      2.15433820     -4.76932158      0.19765484
    C      0.39534495      2.16162764     -0.48518905
    H      0.71295553      1.32890098     -1.07729546
    H      0.86842643      3.05310964     -0.84065050
    H     -0.66680415      2.26758987     -0.55942102
    C      0.78604085      1.92455706      0.98544152
    N      1.07693170      1.74804724      2.08039282
    C     -3.68700763     -3.40561302     -4.36480719
    H     -2.62928195     -3.49484618     -4.49954399
    H     -4.05484421     -2.59417308     -4.95739522
    H     -4.16324038     -4.31413917     -4.66924386
    C     -3.99451359     -3.13745193     -2.87983928
    N     -4.22346576     -2.93779381     -1.77421316
    C      0.79178297     -4.26515371      4.36746839
    H      1.51826586     -4.47138594      3.60945054
    H      0.65216266     -5.13556160      4.97392974
    H      1.13358945     -3.45589704      4.97834568
    C     -0.54480864     -3.88032074      3.70638863
    N     -1.53996185     -3.59379510      3.21418470
    C      0.38899235      2.84491116      5.39721060
    H     -0.27187546      3.60293832      5.76265383
    H      0.51584505      2.09109532      6.14592227
    H     -0.02631414      2.40480962      4.51475366
    C      1.75530823      3.47226834      5.06373816
    N      2.77259251      3.93936429      4.81545276
    C      4.52736287      3.20713479      2.09349093
    H      3.91485066      2.49018812      2.59917508
    H      4.78080053      3.99843517      2.76766610
    H      5.42197470      2.73200862      1.74878251
    C      3.75658815      3.78394854      0.89149583
    N      3.18271134      4.21341260     -0.00344416
    C      3.87912806      1.34069799     -1.87871110
    H      3.24007865      1.24924246     -1.02539292
    H      3.33640408      1.78945475     -2.68429606
    H      4.72031919      1.95354909     -1.63029592
    C      4.36931281     -0.05559865     -2.30494415
    N      4.73427763     -1.09520497     -2.62229403
    C      1.17758855     -1.67957909      1.56234898
    H      0.13088862     -1.71350598      1.78182201
    H      1.63421984     -0.89096744      2.12313291
    H      1.62810732     -2.61311303      1.82776621
    C      1.37843637     -1.42216950      0.05735713
    N      1.52797671     -1.23051636     -1.06317771
    C     -1.33964962     -4.20055585     -0.10307284
    H     -1.29764901     -3.24686111      0.38025157
    H     -0.70552804     -4.89044101      0.41349989
    H     -2.34632381     -4.56296146     -0.09009786
    C     -0.86390101     -4.05865101     -1.56085412
    N     -0.50968454     -3.95299640     -2.64623855
    C     -5.40462350      0.58009704     -1.65149955
    H     -4.49610383      0.95075673     -1.22476358
    H     -5.71466251     -0.29741602     -1.12353579
    H     -6.16533554      1.32883380     -1.57660270
    C     -5.17113115      0.23196515     -3.13335160
    N     -4.99728548     -0.02723487     -4.23665782
    C     -1.80413212     -0.00343085      3.52617859
    H     -2.51750623      0.55508742      4.09543680
    H     -2.27402254     -0.87620524      3.12323076
    H     -1.43246901      0.60284975      2.72668535
    C     -0.63603069     -0.42372857      4.43749023
    N      0.23367391     -0.73665932      5.11600316
    C     -4.45842237     -2.43087542      1.62014802
    H     -5.12603038     -2.93516236      0.95314396
    H     -4.52597278     -2.87134655      2.59293845
    H     -3.45600435     -2.52060133      1.25682108
    C     -4.84307710     -0.94198915      1.70296359
    N     -5.12947003      0.16655435      1.76462355
    C      3.40650468      0.22199236      4.64595984
    H      2.80407633      0.72703996      3.92007611
    H      4.37846426      0.66843435      4.67567891
    H      2.94730254      0.30278967      5.60903007
    C      3.53556400     -1.26373176      4.26181464
    N      3.63165452     -2.36992090      3.97580107
    C     -2.31618507      1.41313978     -5.95098216
    H     -1.45513139      2.03450427     -5.81909997
    H     -3.01573495      1.60120708     -5.16347994
    H     -2.77290808      1.63191209     -6.89355410
    C     -1.89128933     -0.06670814     -5.91760940
    N     -1.57493514     -1.16852218     -5.89276186
    C     -0.69949182      4.35340697     -3.40138428
    H     -0.13023881      4.69711161     -2.56310133
    H     -1.12494220      5.19217711     -3.91163492
    H     -0.06036102      3.81573733     -4.07020584
    C     -1.82633268      3.42536793     -2.91090165
    N     -2.66531692      2.73440068     -2.54571503
    C     -3.39520314      2.93817809      0.84343857
    H     -3.21174151      3.70679602      0.12200355
    H     -4.44285464      2.89106657      1.05582018
    H     -3.06772038      1.99722893      0.45322222
    C     -2.62274477      3.25401216      2.13771709
    N     -2.04761439      3.48916498      3.10136628
