120
Energy:   -595.25828952
    C      4.79897149     -2.97018768      0.29291381
    H      5.77009848     -3.37325451      0.49128136
    H      4.55239024     -3.12424279     -0.73682586
    H      4.07603191     -3.46141224      0.91013005
    C      4.79665981     -1.46134970      0.60113875
    N      4.79493866     -0.33795124      0.83062623
    C      1.14678553     -1.57084694     -4.51819559
    H      2.17868522     -1.78650027     -4.70143545
    H      0.56146775     -1.89117179     -5.35467283
    H      0.82499939     -2.08828038     -3.63864149
    C      0.96717257     -0.05471895     -4.31646527
    N      0.83344255      1.07410725     -4.16626788
    C      1.38656712      5.39889779      1.91520990
    H      0.92189226      5.89700177      2.74035830
    H      2.28255831      5.91729091      1.64434561
    H      1.62631624      4.39413112      2.19425003
    C      0.42073282      5.38201472      0.71584379
    N     -0.29837471      5.36944450     -0.17713880
    C     -1.79856209     -0.41081560     -2.26098905
    H     -1.18705548     -1.23666764     -2.55919746
    H     -1.36576181      0.50049470     -2.61749507
    H     -2.77896656     -0.52553069     -2.67396195
    C     -1.89053399     -0.36870758     -0.72431469
    N     -1.95901124     -0.33735624      0.41980922
    C      2.30365787     -4.56649262     -2.49720824
    H      2.61798023     -3.54997188     -2.61028880
    H      1.43906022     -4.74193259     -3.10267566
    H      3.09299536     -5.22019809     -2.80464051
    C      1.95958644     -4.83617349     -1.02056100
    N      1.70340961     -5.03696316      0.07887000
    C      0.57690133      2.07663646     -0.57539490
    H     -0.46746747      2.29918564     -0.50708777
    H      0.72247243      1.24775786     -1.23620381
    H      1.09950407      2.93032201     -0.95355683
    C      1.11834179      1.72062790      0.82163771
    N      1.52146882      1.45556334      1.86179200
    C     -4.20218439     -3.16543909     -4.08930467
    H     -4.51930688     -2.35752050     -4.71508503
    H     -4.76916638     -4.04203206     -4.32385802
    H     -3.16277266     -3.35806865     -4.25488305
    C     -4.42571113     -2.78935607     -2.61275553
    N     -4.59213694     -2.50934517     -1.51339758
    C      0.82550040     -3.77828591      5.00938110
    H      0.90867330     -4.29993900      5.93989735
    H      1.63139122     -4.06493457      4.36651905
    H     -0.10633899     -4.02435135      4.54459486
    C      0.88706547     -2.26078260      5.26431927
    N      0.93290347     -1.13093242      5.45413232
    C      0.98381455      2.33216126      5.20777862
    H      0.16263559      3.01394843      5.28348554
    H      1.14650331      1.86310536      6.15562777
    H      0.76127959      1.58585105      4.47402229
    C      2.25183445      3.10011743      4.79068287
    N      3.19593290      3.67189570      4.48013612
    C      4.89538658      2.89457344      1.69053069
    H      4.26728427      2.19681095      2.20386798
    H      5.17476432      3.68188691      2.35909982
    H      5.77443446      2.39384430      1.34204218
    C      4.13211610      3.48636370      0.49102976
    N      3.56382653      3.92697844     -0.40205320
    C      3.85832502      0.96616963     -2.15989799
    H      3.29584650      0.91643048     -1.25102830
    H      3.29254282      1.49076929     -2.90123785
    H      4.77851351      1.48243147     -1.98206111
    C      4.15779403     -0.46030819     -2.65696875
    N      4.38076232     -1.52238577     -3.02706052
    C      1.13115687     -1.99609731      1.63069180
    H      1.68289440     -2.88808611      1.84245079
    H      0.09716637     -2.15436036      1.85589293
    H      1.50774224     -1.19318763      2.22937252
    C      1.28323951     -1.64010886      0.14014053
    N      1.39647194     -1.37505928     -0.96964265
    C     -1.80813861     -4.07149693      0.32484050
    H     -1.89006856     -3.08902230      0.74069055
    H     -1.05984729     -4.62218817      0.85559311
    H     -2.74871567     -4.57444140      0.41005059
    C     -1.41347233     -3.96907797     -1.16020121
    N     -1.11962534     -3.89282240     -2.26588227
    C     -5.33019562      1.25542124     -1.45334499
    H     -4.65305291      0.69857073     -0.83991574
    H     -6.32364139      1.15686964     -1.06830970
    H     -5.04743952      2.28738137     -1.45082283
    C     -5.28191297      0.71345820     -2.89402013
    N     -5.24596435      0.30994209     -3.96666825
    C     -1.80076779      0.19047253      3.75698249
    H     -2.72120962      0.69306149      3.54463524
    H     -1.04699313      0.52316722      3.07431338
    H     -1.49691697      0.41095177      4.75896187
    C     -1.99821004     -1.32903951      3.60303541
    N     -2.14521477     -2.46038530      3.48841481
    C     -5.01288216     -1.87035698      1.71605797
    H     -5.83185540     -2.19168873      1.10701862
    H     -5.07952545     -2.33516187      2.67752257
    H     -4.09089919     -2.14744708      1.24908092
    C     -5.06522276     -0.34010256      1.88092721
    N     -5.10419271      0.79924141      2.00367986
    C      4.01850726     -0.01529775      4.25786084
    H      3.74720501      0.13607561      5.28176581
    H      3.33206672      0.50837933      3.62583172
    H      5.00879392      0.35482449      4.09281253
    C      3.97166831     -1.51956775      3.93139816
    N      3.93679459     -2.63956514      3.68833185
    C     -2.55176347      1.54833828     -5.82296121
    H     -1.63332320      2.08863720     -5.72577714
    H     -3.21606432      1.82904911     -5.03251521
    H     -3.00241661      1.77766850     -6.76594503
    C     -2.26893008      0.03663122     -5.74329307
    N     -2.05834776     -1.08890341     -5.68397652
    C     -0.37497026      4.34345819     -3.45781880
    H     -0.28378699      5.26244550     -2.91740403
    H     -0.52418521      4.55367081     -4.49630070
    H      0.51841417      3.76748181     -3.33528490
    C     -1.57725592      3.54722844     -2.91733071
    N     -2.47241224      2.95439919     -2.51491277
    C     -3.03461345      3.24020217      0.89559007
    H     -4.03396642      3.37508760      1.25336057
    H     -2.94128512      2.26931814      0.45562062
    H     -2.81470482      3.98704449      0.16158337
    C     -2.04711751      3.36852080      2.07031817
    N     -1.31188190      3.46405985      2.94495664
