120
Energy:   -595.25198727
    C      4.74221874     -2.60632537      0.47538396
    H      5.56428415     -2.84924193      1.11577460
    H      5.00539684     -2.82007994     -0.53947828
    H      3.88927287     -3.18964064      0.75309917
    C      4.40788317     -1.10951971      0.61464107
    N      4.15895514      0.00492014      0.71832432
    C      1.18113241     -1.85044170     -4.53898725
    H      0.69469372     -2.34963732     -3.72714902
    H      2.21127625     -2.13821767     -4.56878237
    H      0.70815041     -2.12210790     -5.45952220
    C      1.07934378     -0.32679194     -4.33966218
    N      1.00355751      0.80763456     -4.19125561
    C      1.29694264      5.44568673      2.26946572
    H      0.59997494      5.59023298      3.06836658
    H      1.93024872      6.30436747      2.18890588
    H      1.89342631      4.58001715      2.46877080
    C      0.53007584      5.24770654      0.94873897
    N     -0.04089135      5.10030129     -0.03460213
    C     -1.77804774     -0.49488184     -2.32681257
    H     -1.21842895     -1.38195451     -2.53854133
    H     -1.24677168      0.35817448     -2.69415403
    H     -2.73342162     -0.55321324     -2.80509835
    C     -1.97309697     -0.36196988     -0.80500766
    N     -2.11832000     -0.26301089      0.32804528
    C      2.35356695     -4.68753989     -2.07351782
    H      2.74894396     -3.70498080     -2.22568498
    H      1.52451855     -4.84425290     -2.73155952
    H      3.11301311     -5.41314634     -2.27756659
    C      1.88469397     -4.83181026     -0.61374243
    N      1.53559672     -4.93922611      0.47312670
    C      1.11393064      1.84929138     -0.63127233
    H      1.84646860      1.15762388     -0.99166710
    H      1.35547568      2.83440858     -0.97200564
    H      0.14878948      1.57100478     -0.99999745
    C      1.10106104      1.82746781      0.90851925
    N      1.09147904      1.81121917      2.05496407
    C     -4.20955785     -3.09598692     -4.15351282
    H     -4.47507143     -2.24501393     -4.74533010
    H     -4.81245848     -3.93210342     -4.44042590
    H     -3.17723955     -3.33054682     -4.30907525
    C     -4.44545764     -2.77977766     -2.66490172
    N     -4.62109576     -2.54434549     -1.55656310
    C      1.01703485     -4.40473076      4.08700273
    H      0.38531160     -3.62443009      4.45707944
    H      1.12090802     -5.16392010      4.83382333
    H      0.58190626     -4.82824699      3.20598275
    C      2.40300673     -3.82556749      3.74751509
    N      3.43492579     -3.39435411      3.49475111
    C      0.50955252      2.70994481      5.48850884
    H     -0.10756463      3.54987937      5.73053474
    H      0.55941883      2.04996391      6.32924522
    H      0.09234933      2.19027208      4.65138230
    C      1.92643295      3.19888717      5.13497636
    N      2.98136484      3.56292698      4.87175536
    C      4.63630337      3.13622689      1.90805126
    H      5.43360678      2.43610904      1.77005688
    H      3.83051211      2.66126246      2.42767451
    H      4.98804145      3.96909130      2.48034164
    C      4.14227877      3.62876566      0.53511818
    N      3.77445500      3.99548317     -0.48709291
    C      4.28306187      1.17379969     -2.65984463
    H      5.08114469      1.59983321     -3.23121092
    H      4.39726918      1.44407346     -1.63086073
    H      3.34711612      1.54312542     -3.02385446
    C      4.31710833     -0.35991797     -2.79457010
    N      4.34245746     -1.50184049     -2.89487934
    C      0.86575848     -1.65774517      1.51602260
    H      0.41973905     -2.59712160      1.76809159
    H      0.21719955     -0.86233407      1.81866361
    H      1.80542469     -1.56269678      2.01890659
    C      1.08871658     -1.58734122     -0.00612489
    N      1.25471902     -1.53492228     -1.13943288
    C     -1.92438604     -4.04371898      0.26011334
    H     -1.85752771     -3.04561872      0.63988436
    H     -1.28910838     -4.68656924      0.83288286
    H     -2.93575193     -4.38561874      0.33182588
    C     -1.47932537     -4.06293336     -1.21404805
    N     -1.14795747     -4.07723934     -2.31162821
    C     -5.20837708      1.40413580     -1.37972512
    H     -4.70235978      0.73761481     -0.71294446
    H     -6.22937622      1.50536223     -1.07605910
    H     -4.73244073      2.36215591     -1.35561771
    C     -5.15218064      0.83890360     -2.81114208
    N     -5.11033983      0.41806253     -3.87689707
    C     -1.96289674      0.16115073      3.80858675
    H     -1.60203377      0.35028276      4.79798413
    H     -2.94892622      0.56367842      3.70555081
    H     -1.31220137      0.62482653      3.09689905
    C     -1.99963926     -1.35774624      3.55718670
    N     -2.02699574     -2.48863407      3.37000794
    C     -5.02447879     -1.96484948      1.69699947
    H     -5.83220768     -2.31850998      1.09086544
    H     -5.04019848     -2.46804256      2.64116509
    H     -4.09563422     -2.16138256      1.20352039
    C     -5.17617048     -0.44875742      1.92072807
    N     -5.28911184      0.68004204      2.08730419
    C      3.47306281      0.06693767      4.18579266
    H      3.36024961      0.56935127      3.24784067
    H      4.12273037     -0.77446466      4.06383663
    H      3.89297707      0.74076231      4.90310115
    C      2.09602877     -0.41497658      4.67888078
    N      1.07076433     -0.77378365      5.04600729
    C     -2.35134492      1.50471357     -5.76432596
    H     -1.40778709      2.00338320     -5.68733639
    H     -2.96181617      1.76492458     -4.92497252
    H     -2.84044388      1.80431548     -6.66760886
    C     -2.12680335     -0.01871275     -5.78312277
    N     -1.95962194     -1.15297290     -5.79711785
    C     -0.00699729      4.19839290     -3.40117373
    H      0.58100772      3.53205118     -3.99710914
    H      0.58403548      4.56577133     -2.58839305
    H     -0.33536984      5.01976175     -4.00319015
    C     -1.23132149      3.44651805     -2.84681423
    N     -2.14288651      2.88671305     -2.43406839
    C     -2.62955444      3.03786311      0.97047172
    H     -3.40299709      2.31289175      1.11574109
    H     -1.82234281      2.59401891      0.42612733
    H     -3.01802894      3.86812293      0.41851584
    C     -2.11904277      3.52513114      2.33924770
    N     -1.73894362      3.88792434      3.35836363
