120
Energy:   -595.13517080
    C      5.38409857     -3.11722272     -0.28178437
    H      5.29869912     -3.13060018     -1.34828714
    H      4.67617514     -3.79894953      0.14129018
    H      6.37380419     -3.40998813      0.00047489
    C      5.10145370     -1.69542631      0.23802986
    N      4.89101175     -0.63683425      0.62505519
    C      0.98430316     -0.56464438     -4.74748976
    H      2.04390164     -0.69805184     -4.81347222
    H      0.54515304     -0.71514706     -5.71154121
    H      0.57802121     -1.27291789     -4.05598219
    C      0.67606307      0.86336091     -4.26026401
    N      0.44656432      1.92657576     -3.89750229
    C      1.17294363      5.02142599      2.70977402
    H      1.09708070      5.67340286      3.55480133
    H      2.10839209      5.18425858      2.21649843
    H      1.11481416      4.00451836      3.03752230
    C      0.01944397      5.31229681      1.73180025
    N     -0.83938896      5.52886335      1.00365432
    C     -2.02989612     -0.08494609     -2.22260175
    H     -1.33743388     -0.77644856     -2.65529168
    H     -1.74177268      0.91392912     -2.47584530
    H     -3.01173751     -0.27966224     -2.60071839
    C     -2.02808882     -0.24708768     -0.69116229
    N     -2.02674321     -0.36780946      0.44906401
    C      2.40712322     -3.87972198     -2.95872525
    H      1.77068246     -4.46754681     -3.58666260
    H      3.42964433     -4.06583823     -3.21310766
    H      2.18764653     -2.84203524     -3.09991766
    C      2.16733805     -4.25931926     -1.48563022
    N      1.98880709     -4.54194668     -0.38884400
    C      0.24408967      2.29786388     -0.28293662
    H     -0.62462001      2.88553495     -0.07107254
    H      0.42120919      1.61902483      0.52496518
    H      0.08920834      1.74503482     -1.18587122
    C      1.46237803      3.22473984     -0.45108662
    N      2.36944909      3.91484113     -0.57628193
    C     -4.26764652     -2.72930155     -4.33627466
    H     -4.68058903     -1.85555802     -4.79556858
    H     -4.77831506     -3.59737385     -4.69761555
    H     -3.22761095     -2.80120413     -4.57722098
    C     -4.43521109     -2.63397776     -2.80838871
    N     -4.55997053     -2.56300487     -1.67080817
    C      1.58563242     -4.80206475      3.20330523
    H      1.03629324     -4.16293101      3.86257355
    H      1.66694308     -5.77678524      3.63713427
    H      1.07512732     -4.87054619      2.26543855
    C      2.99399186     -4.22050757      2.97988872
    N      4.04257948     -3.78751181      2.81354496
    C      0.99114081      1.90613819      5.55571308
    H      0.27605479      2.67754577      5.75188268
    H      0.99685157      1.21005932      6.36832657
    H      0.72795244      1.39725173      4.65201759
    C      2.39090789      2.53013835      5.40446522
    N      3.43309811      2.99473483      5.29185431
    C      4.73991721      2.65069196      1.84516224
    H      4.63665042      3.37193733      1.06155439
    H      5.46273556      1.91512511      1.55990070
    H      5.06318034      3.14012642      2.74006667
    C      3.38296641      1.96688319      2.09554216
    N      2.37265486      1.45775649      2.28196140
    C      3.88502866      1.23183120     -2.09458567
    H      4.78503412      1.80770940     -2.03753608
    H      3.49485693      1.08133884     -1.10969118
    H      3.16410485      1.75458663     -2.68779281
    C      4.18884113     -0.13278588     -2.74043256
    N      4.41504333     -1.14880532     -3.22129493
    C      1.37846482     -1.53817241      1.25578308
    H      0.87455497     -0.80087749      1.84516516
    H      2.40147809     -1.60203188      1.56280902
    H      0.90523432     -2.48811677      1.39200966
    C      1.31244202     -1.14020557     -0.23044146
    N      1.26328504     -0.84390116     -1.33700319
    C     -1.49811889     -3.94865114     -0.32480925
    H     -1.32801638     -3.05984688      0.24614811
    H     -0.85308377     -4.72690741      0.02611233
    H     -2.51777522     -4.25369270     -0.21458350
    C     -1.20376435     -3.66872530     -1.81027110
    N     -0.98460401     -3.46030779     -2.91626497
    C     -5.62369203      1.08153675     -0.97328660
    H     -5.35948631      2.10346327     -0.79789640
    H     -4.92989129      0.44210677     -0.46863929
    H     -6.61086845      0.89971276     -0.60271697
    C     -5.58170904      0.79271780     -2.48537821
    N     -5.55045079      0.57767897     -3.61119915
    C     -1.49341935     -0.64663820      3.87383651
    H     -2.49433375     -0.26856595      3.86235088
    H     -0.87748241     -0.04470867      3.23885492
    H     -1.11222118     -0.61650998      4.87317596
    C     -1.48797999     -2.10047289      3.36596337
    N     -1.48393013     -3.18291889      2.98782874
    C     -4.64915596     -2.43408880      1.68706416
    H     -5.47267425     -2.77829514      1.09694568
    H     -4.55895849     -3.04237835      2.56270526
    H     -3.74801636     -2.49840060      1.11373136
    C     -4.89069001     -0.97064322      2.10129639
    N     -5.07052308      0.11895853      2.40971112
    C      4.24038668     -0.71590502      4.32637606
    H      4.41425376      0.27226519      4.69811530
    H      4.43191680     -0.73988863      3.27393124
    H      4.89221100     -1.40372883      4.82328909
    C      2.77634549     -1.11366155      4.59090042
    N      1.68630027     -1.40980936      4.78785084
    C     -3.02290499      2.29971800     -5.35092549
    H     -2.15034642      2.88945708     -5.16184998
    H     -3.69265162      2.37714549     -4.52005636
    H     -3.50905014      2.65540437     -6.23526095
    C     -2.61511622      0.82757175     -5.54610171
    N     -2.31149894     -0.26850804     -5.69141927
    C     -1.01915794      5.00864353     -2.57430226
    H     -1.37233165      5.64839747     -3.35589257
    H     -0.15593215      4.47479971     -2.91305161
    H     -0.76107403      5.59859117     -1.71975351
    C     -2.12470150      4.00712673     -2.19176138
    N     -2.94782894      3.26145195     -1.90694230
    C     -3.34916439      2.90099038      1.50684734
    H     -3.26833366      3.84092244      1.00197675
    H     -4.29688706      2.84133737      1.99996229
    H     -3.26647995      2.10584555      0.79564620
    C     -2.22048981      2.77846056      2.54736650
    N     -1.38014028      2.68723154      3.32208032
