120
Energy:   -594.96790717
    C      5.22567619     -3.23481484      0.55930313
    H      6.19162859     -3.44653387      0.96797315
    H      5.21295645     -3.49400153     -0.47875253
    H      4.48544880     -3.80671851      1.07881127
    C      4.91910726     -1.73394620      0.71744489
    N      4.69085277     -0.61648128      0.83518862
    C      0.99768328     -1.84531114     -4.46835160
    H      2.04931108     -2.03942967     -4.50436773
    H      0.53574211     -2.21657881     -5.35923305
    H      0.57369211     -2.33436130     -3.61631843
    C      0.75920528     -0.32770829     -4.36060261
    N      0.58164757      0.80221601     -4.28037859
    C      1.21648358      5.70062508      1.51768478
    H      0.75697514      5.55782765      2.47338404
    H      1.67324154      6.66759463      1.48245484
    H      1.96175108      4.94833238      1.36428622
    C      0.14781221      5.59717228      0.41367436
    N     -0.64786220      5.52014696     -0.40831159
    C     -1.96781899     -0.59587699     -2.18167255
    H     -1.29893414     -1.39852953     -2.41241515
    H     -1.63154691      0.29834262     -2.66353505
    H     -2.95043755     -0.83972767     -2.52793357
    C     -2.00025744     -0.37670205     -0.65769418
    N     -2.02440934     -0.21351635      0.47697700
    C      2.29006361     -4.61214470     -1.88007086
    H      2.19867657     -3.61689745     -2.26221155
    H      1.59702567     -5.25280759     -2.38420235
    H      3.28651842     -4.96650070     -2.04257844
    C      1.98489859     -4.61247334     -0.37060929
    N      1.75768937     -4.61271803      0.75325345
    C      0.39720663      2.09309153     -0.78328418
    H      0.20543519      1.46908873     -1.63107213
    H     -0.44150310      2.73634197     -0.61686918
    H      0.55511464      1.48213781      0.08083370
    C      1.65306194      2.94470748     -1.04630075
    N      2.58810330      3.57877426     -1.24212853
    C     -4.34542721     -3.52920873     -3.57480809
    H     -4.71088268     -2.76658781     -4.23036267
    H     -4.89692343     -4.43196091     -3.73539922
    H     -3.30883959     -3.70425818     -3.77416428
    C     -4.51761381     -3.07558331     -2.11324190
    N     -4.64581456     -2.73783856     -1.02503943
    C      1.26208153     -4.00286862      4.27651402
    H      0.76252290     -3.20457272      4.78451501
    H      1.29730715     -4.86314869      4.91179070
    H      0.73007330     -4.24321982      3.37979911
    C      2.69607067     -3.56773095      3.92164734
    N      3.76374076     -3.24375117      3.65743297
    C      1.17867688      3.26584261      4.84592023
    H      2.05391263      3.82170997      5.11025720
    H      1.02214203      2.48561031      5.56120584
    H      0.33058948      3.91821532      4.83839035
    C      1.36489704      2.64983026      3.44683095
    N      1.50354642      2.19118106      2.40514538
    C      4.83708654      2.75491153      1.11246390
    H      3.99499882      2.14375763      0.86290555
    H      5.72585013      2.15919288      1.10161678
    H      4.92870945      3.54525882      0.39702313
    C      4.63803932      3.35439761      2.51695550
    N      4.48983962      3.80074224      3.56266333
    C      3.92200119      0.54412460     -2.44206095
    H      4.24454724      0.84822055     -1.46820784
    H      2.87054046      0.71679162     -2.53960849
    H      4.44656533      1.10904510     -3.18408278
    C      4.21611374     -0.95512357     -2.63532951
    N      4.43509390     -2.07138198     -2.77922673
    C      1.25415398     -1.25821179      1.59981545
    H      0.73064517     -2.12491454      1.94574182
    H      0.75969152     -0.37787231      1.95394586
    H      2.25803625     -1.27663847      1.96965317
    C      1.27443167     -1.25131785      0.05996438
    N      1.28952933     -1.24618499     -1.08652472
    C     -1.69127022     -3.89138099      0.68054654
    H     -1.51110011     -2.89425684      1.02432312
    H     -1.07385446     -4.57385844      1.22636831
    H     -2.72045866     -4.14090208      0.83354813
    C     -1.35793507     -3.98511336     -0.82002066
    N     -1.10975190     -4.05490138     -1.93726115
    C     -5.48227288      1.07218903     -1.19135793
    H     -6.46911009      1.00662686     -0.78300257
    H     -5.20091174      2.10064632     -1.28085988
    H     -4.79436759      0.56923447     -0.54427052
    C     -5.45698405      0.41021726     -2.58159311
    N     -5.43815537     -0.08265082     -3.61668639
    C     -1.54756900      0.51555869      3.85934427
    H     -2.53823352      0.89353894      4.00292332
    H     -1.13600106      0.92586121      2.96092190
    H     -0.93548893      0.79395562      4.69166165
    C     -1.59504069     -1.01966543      3.74783936
    N     -1.63038552     -2.16270957      3.66481888
    C     -4.75130428     -1.76799171      2.18859608
    H     -4.68765381     -2.17513169      3.17606043
    H     -3.86532241     -2.01650866      1.64254246
    H     -5.60468092     -2.17639047      1.68873826
    C     -4.88984075     -0.23654422      2.27271635
    N     -4.99298745      0.90368805      2.33534772
    C      4.08077392      0.17309093      4.24557947
    H      4.49369842      0.96077337      4.84051637
    H      4.03074187      0.48659565      3.22376213
    H      4.70172193     -0.69491216      4.32234728
    C      2.66477659     -0.16252041      4.74948083
    N      1.61050221     -0.41239831      5.12465830
    C     -2.87561635      1.02021995     -5.75788215
    H     -1.97220795      1.59338334     -5.74248171
    H     -3.50311020      1.32159056     -4.94527750
    H     -3.38678557      1.18494242     -6.68333968
    C     -2.53702490     -0.47553513     -5.61762326
    N     -2.28492818     -1.58919278     -5.51319414
    C     -0.71745614      4.17390436     -3.70917185
    H     -0.43979902      4.97368942     -3.05483970
    H     -1.03937119      4.57584481     -4.64710237
    H      0.12468120      3.53274681     -3.86608197
    C     -1.86580809      3.36710411     -3.07516778
    N     -2.72080831      2.76640465     -2.60312294
    C     -3.18450887      3.32300785      0.80242643
    H     -4.21077142      3.33965024      1.10476464
    H     -2.93825309      2.35077838      0.42956312
    H     -3.02738963      4.05025230      0.03344779
    C     -2.28801488      3.65165112      2.01068638
    N     -1.62053435      3.89634098      2.91029083
