120
Energy:   -594.95273084
    C      4.79729678     -2.53351548     -0.52669681
    H      3.98365272     -3.16644101     -0.23983657
    H      5.68472102     -2.83825894     -0.01239268
    H      4.95311559     -2.60940725     -1.58256614
    C      4.46684529     -1.07474306     -0.16011143
    N      4.22080913      0.01137931      0.11282804
    C      0.52815602     -1.17484168     -4.83959176
    H      1.38373348     -1.61949456     -4.37572624
    H      0.62089337     -1.24756797     -5.90308119
    H     -0.35604414     -1.68741149     -4.52279315
    C      0.43587870      0.30751755     -4.43253402
    N      0.36717405      1.41120138     -4.12946103
    C      1.59015814      5.13979208      2.72863449
    H      2.20380610      4.26328801      2.73740794
    H      1.01498909      5.18153783      3.62993186
    H      2.21060892      6.00890181      2.66089813
    C      0.64179026      5.09035167      1.51630037
    N     -0.06431273      5.05354103      0.61366251
    C     -2.09335776     -0.23695779     -2.08819742
    H     -1.54495183     -1.06337372     -2.48967945
    H     -1.64794512      0.67930305     -2.41526430
    H     -3.10677147     -0.28231728     -2.42854176
    C     -2.06515538     -0.30098363     -0.54978742
    N     -2.04415742     -0.34865378      0.59562875
    C      2.08590401     -4.34702455     -2.94742626
    H      2.56576756     -3.39263851     -3.00889526
    H      1.16238403     -4.31730584     -3.48698788
    H      2.72303853     -5.09458286     -3.37182613
    C      1.80743967     -4.68747520     -1.47157024
    N      1.60011031     -4.94095619     -0.37272836
    C      1.00319274      1.94299947     -0.54725806
    H      1.67561877      1.31795632     -1.09686199
    H      1.19317118      2.96843090     -0.78662737
    H     -0.00525028      1.69703920     -0.80696040
    C      1.21337948      1.72073817      0.96205352
    N      1.36987305      1.55525452      2.08580460
    C     -4.75493445     -2.65209365     -3.88440632
    H     -5.10636523     -1.73846188     -4.31646372
    H     -5.39078637     -3.45761351     -4.18727458
    H     -3.75564619     -2.84235654     -4.21625282
    C     -4.77221353     -2.53385742     -2.34904916
    N     -4.78507859     -2.44582517     -1.20590596
    C      1.60320505     -4.85795237      3.30503730
    H      1.03672416     -4.14678315      3.86916310
    H      1.81810286     -5.70890301      3.91708388
    H      1.03817205     -5.16679959      2.45049052
    C      2.92244933     -4.21226133      2.84213602
    N      3.90468667     -3.73151500      2.49748498
    C      1.27559644      2.00074639      5.65685904
    H      0.69521765      2.78800044      6.09078495
    H      1.44694623      1.23902329      6.38851215
    H      0.74639568      1.58411434      4.82543654
    C      2.62594834      2.56364059      5.17592260
    N      3.63134671      2.98274092      4.81784356
    C      4.85586930      2.96779972      1.62739909
    H      4.13421668      2.41112674      2.18796388
    H      5.27988891      3.72902271      2.24840313
    H      5.62985181      2.31042739      1.29018731
    C      4.17028087      3.61952652      0.41215398
    N      3.65982913      4.10476674     -0.49265125
    C      3.86425001      1.60517741     -3.07006308
    H      2.88266281      1.98206619     -3.26841028
    H      4.57517198      2.12380071     -3.67876574
    H      4.10200540      1.75514273     -2.03764753
    C      3.91161565      0.10046883     -3.39442180
    N      3.94688153     -1.01985510     -3.63592161
    C      1.08469227     -1.81566793      1.13034433
    H      2.08410316     -1.75770960      1.50812586
    H      0.68752929     -2.79087194      1.32044376
    H      0.47646698     -1.08183591      1.61660730
    C      1.09329522     -1.55168886     -0.38683761
    N      1.09970051     -1.35514444     -1.51644852
    C     -1.84786683     -4.08668633     -0.01463996
    H     -2.84092419     -4.44936787      0.15028235
    H     -1.72339537     -3.14835860      0.48430594
    H     -1.14185976     -4.79215233      0.37106825
    C     -1.61387445     -3.89984252     -1.52524810
    N     -1.43965648     -3.76072882     -2.64996453
    C     -5.37484077      1.43270624     -0.42980543
    H     -6.34192885      1.44107568      0.02798358
    H     -4.93381400      2.40427787     -0.34953683
    H     -4.75236608      0.71649673      0.06463191
    C     -5.51360422      1.05312927     -1.91582900
    N     -5.61691991      0.77051696     -3.02224109
    C     -1.39212745     -0.37221435      4.03092001
    H     -2.38484493      0.01830990      4.11400423
    H     -0.84550721      0.19425068      3.30619746
    H     -0.90191666     -0.30517168      4.97965483
    C     -1.45561808     -1.84605750      3.58892984
    N     -1.50288975     -2.94340072      3.25984807
    C     -4.71477483     -2.28805305      2.11939286
    H     -4.59080130     -2.90851814      2.98226818
    H     -3.86539145     -2.39574527      1.47763797
    H     -5.59894462     -2.58156360      1.59309025
    C     -4.84313787     -0.81761245      2.55862786
    N     -4.93870998      0.27719741      2.88565828
    C      4.03435867     -0.38884965      3.62042969
    H      3.78540379      0.22230350      2.77816282
    H      4.66459480     -1.19336762      3.30348749
    H      4.54893640      0.20133033      4.34967344
    C      2.74498916     -0.95996786      4.23925943
    N      1.78499495     -1.38519133      4.70000630
    C     -3.17921588      2.17021123     -5.13619665
    H     -2.23916829      2.68094227     -5.11710445
    H     -3.68118388      2.31197411     -4.20194267
    H     -3.78225824      2.56254300     -5.92822871
    C     -2.94179237      0.66644058     -5.36836882
    N     -2.76501978     -0.45318502     -5.54123156
    C     -0.55198159      4.59480201     -2.76961078
    H     -0.26110752      5.35224004     -2.07205785
    H     -0.89214337      5.05446066     -3.67399066
    H      0.28660246      3.96538690     -2.98294734
    C     -1.68798031      3.74897836     -2.16488830
    N     -2.53378299      3.11922421     -1.71464494
    C     -2.48348514      2.82701389      1.71365214
    H     -3.20631144      2.05467323      1.87462489
    H     -1.76096609      2.49565227      0.99736673
    H     -2.97425930      3.70378270      1.34579854
    C     -1.77669375      3.15362905      3.04232384
    N     -1.25045544      3.39680889      4.03158031
