120
Energy:   -594.87696172
    C      4.71603532     -2.61241352      0.74239787
    H      5.50215596     -2.81026822      1.44080180
    H      5.02784832     -2.90594078     -0.23817008
    H      3.84412045     -3.16687723      1.02030709
    C      4.39073671     -1.10717490      0.74852161
    N      4.14853710      0.01354367      0.75308101
    C      1.19526471     -2.18011401     -4.35545850
    H      1.95097395     -2.52348330     -3.68025390
    H      1.44538641     -2.47818874     -5.35219803
    H      0.25244696     -2.60573355     -4.08188623
    C      1.10457267     -0.64433741     -4.28642803
    N      1.03704833      0.49911807     -4.23503170
    C      1.35089793      5.58508332      1.84591887
    H      0.64886398      5.81151363      2.62101746
    H      2.00403873      6.42016070      1.70117090
    H      1.92575021      4.72683303      2.12493571
    C      0.59390863      5.29254410      0.53710720
    N      0.03029569      5.07473535     -0.43736259
    C     -1.76227268     -0.65413458     -2.29289819
    H     -1.23380528      0.16950321     -2.72561424
    H     -2.71349455     -0.75865240     -2.77159651
    H     -1.19517713     -1.55159034     -2.42659517
    C     -1.97001633     -0.39746388     -0.78871644
    N     -2.12469092     -0.20636088      0.33121524
    C      2.33308395     -4.88664419     -1.63454232
    H      1.50299842     -4.96092655     -2.30561633
    H      2.99490397     -5.71232876     -1.79309307
    H      2.85615246     -3.97067304     -1.81425121
    C      1.82243193     -4.90967833     -0.18185380
    N      1.44222830     -4.92682830      0.89973884
    C      1.14545443      1.77137001     -0.77003167
    H      1.86564042      1.03751502     -1.06615525
    H      1.41240283      2.72082289     -1.18497366
    H      0.17786890      1.48568340     -1.12648712
    C      1.11731864      1.87224554      0.76640333
    N      1.09637027      1.94735195      1.91034903
    C     -4.22185578     -3.36338662     -3.94823471
    H     -4.46788033     -2.55583659     -4.60568057
    H     -4.83748963     -4.20852425     -4.17547128
    H     -3.19279105     -3.62693347     -4.07656210
    C     -4.46279622     -2.92997736     -2.49025525
    N     -4.64218732     -2.60728447     -1.40472327
    C      0.90621562     -4.07825654      4.43589316
    H      0.28937957     -3.26123871      4.74717331
    H      0.99624716     -4.78241420      5.23649008
    H      0.46280292     -4.55706600      3.58793928
    C      2.30260559     -3.55156222      4.05604040
    N      3.34228140     -3.15941435      3.77322275
    C      0.49511434      3.11894438      5.26150185
    H     -0.11175078      3.98346081      5.43245868
    H      0.52719328      2.52423641      6.15042956
    H      0.07822605      2.54297935      4.46189723
    C      1.92238680      3.55958173      4.88689266
    N      2.98505602      3.88765627      4.60797909
    C      4.65933910      3.21893923      1.70278112
    H      5.45132669      2.50362676      1.62542537
    H      3.84432213      2.79108694      2.24829817
    H      5.01346911      4.08917723      2.21481320
    C      4.18280084      3.61175043      0.29203286
    N      3.82799645      3.90421622     -0.75833335
    C      4.32756158      0.91384708     -2.70470535
    H      3.39770693      1.24721280     -3.11596903
    H      5.13502235      1.28989323     -3.29757589
    H      4.42355258      1.27410675     -1.70176079
    C      4.36556202     -0.62568305     -2.70299312
    N      4.39385508     -1.77193322     -2.70171829
    C      0.82970456     -1.55108968      1.63177380
    H      0.18473238     -0.72721698      1.85570426
    H      1.76298401     -1.42150414      2.13882031
    H      0.37093005     -2.46165840      1.95625745
    C      1.07505041     -1.61281862      0.11269679
    N      1.25772154     -1.65877862     -1.01832509
    C     -1.98375241     -3.99072656      0.53440192
    H     -1.89787470     -2.96992688      0.84342167
    H     -1.37183763     -4.60567142      1.16074225
    H     -3.00393844     -4.30316645      0.61502991
    C     -1.51974589     -4.12517449     -0.92786403
    N     -1.17427194     -4.22527708     -2.01658750
    C     -5.17461511      1.36209933     -1.53641258
    H     -4.67659566      0.75087525     -0.81303030
    H     -6.19743952      1.49179920     -1.25021814
    H     -4.69469317      2.31706827     -1.58748458
    C     -5.11001698      0.68069163     -2.91594534
    N     -5.06192075      0.17335263     -3.94307018
    C     -1.99250318      0.47805545      3.76013552
    H     -2.97088147      0.88428176      3.60961546
    H     -1.32352927      0.87819447      3.02715410
    H     -1.64555305      0.73679577      4.73869474
    C     -2.04654107     -1.05490323      3.62332320
    N     -2.08677474     -2.19626064      3.52146021
    C     -5.06452657     -1.76713234      1.78949436
    H     -5.09570936     -2.19588528      2.76934065
    H     -4.13335669     -2.01174978      1.32260674
    H     -5.87053558     -2.15713385      1.20370652
    C     -5.19978500     -0.23666902      1.89431413
    N     -5.30049104      0.90283049      1.97235722
    C      3.43300345      0.34463530      4.19668073
    H      4.07000909     -0.51333831      4.14186043
    H      3.85880871      1.06282802      4.86585051
    H      3.33441371      0.77842471      3.22353845
    C      2.04524329     -0.07851792      4.71307507
    N      1.01199278     -0.39357472      5.09755413
    C     -2.28585746      1.08074806     -5.89176424
    H     -1.33737004      1.57442335     -5.85231181
    H     -2.89762912      1.41832434     -5.08140828
    H     -2.76722690      1.30674721     -6.82026138
    C     -2.07766392     -0.44090538     -5.77851107
    N     -1.92265437     -1.57384552     -5.69418894
    C      0.06727620      3.93584240     -3.71899579
    H     -0.24873805      4.75045973     -4.33659905
    H      0.62220995      3.23596038     -4.30815857
    H      0.68611595      4.30655990     -2.92873950
    C     -1.16725810      3.23715202     -3.11953203
    N     -2.08642500      2.71694526     -2.67320401
    C     -2.59837087      3.13702679      0.70598870
    H     -3.37549890      2.42827579      0.90257006
    H     -1.79063615      2.64975574      0.20098312
    H     -2.98089408      3.92416312      0.09036586
    C     -2.09187327      3.72551760      2.03592808
    N     -1.71476278      4.16367575      3.02612839
