120
Energy:   -594.74738970
    C      4.86077376     -3.21981899     -0.01900133
    H      5.03349932     -4.22940740     -0.32851272
    H      5.74349382     -2.63908113     -0.18766641
    H      4.04974867     -2.80784287     -0.58239558
    C      4.50899027     -3.19553238      1.48008457
    N      4.24707147     -3.17744989      2.59622216
    C      0.77291775     -1.71415561     -4.53261056
    H      0.40322738     -2.24442051     -3.67993926
    H      1.81286949     -1.92944683     -4.66318300
    H      0.23316950     -2.02000474     -5.40440597
    C      0.58507608     -0.20091533     -4.31715906
    N      0.44521942      0.92576085     -4.15674562
    C      1.40986417      5.51600605      1.61224272
    H      0.98721448      5.91035233      2.51266397
    H      2.19564818      6.15944226      1.27544542
    H      1.80471192      4.53966698      1.80133624
    C      0.31893465      5.42757330      0.52889031
    N     -0.49331196      5.36173110     -0.27771481
    C     -2.03370056     -0.51809470     -2.00918835
    H     -1.43176428     -1.34825851     -2.31480402
    H     -1.65747617      0.37868823     -2.45543345
    H     -3.04444253     -0.67574822     -2.32294803
    C     -1.98680775     -0.38707297     -0.47548878
    N     -1.95189393     -0.28952134      0.66642026
    C      2.02639012     -4.68561220     -2.46913128
    H      2.33742636     -3.68741252     -2.69662644
    H      1.09753691     -4.89021904     -2.95930152
    H      2.76898715     -5.37683411     -2.80922099
    C      1.84679978     -4.83295006     -0.94675194
    N      1.71308660     -4.94264980      0.18672868
    C      0.43802324      2.08334783     -0.72254043
    H      0.51842063      1.22798175     -1.36033767
    H      0.82404255      2.94331613     -1.22884339
    H     -0.58962961      2.24736959     -0.47369195
    C      1.24578519      1.84065488      0.56595511
    N      1.84720068      1.65995896      1.52529861
    C     -4.57753413     -3.35372881     -3.47918877
    H     -4.94888145     -2.56710432     -4.10226441
    H     -5.16523327     -4.23519667     -3.62926616
    H     -3.55793762     -3.55757607     -3.73171274
    C     -4.66468108     -2.92383684     -2.00297798
    N     -4.72956594     -2.60376272     -0.90387194
    C      1.58898382     -3.67002400      4.83363780
    H      0.57193013     -3.99242440      4.91463141
    H      2.17030123     -4.12564351      5.60783417
    H      1.97900465     -3.95641726      3.87929942
    C      1.65477999     -2.13806198      4.97633763
    N      1.70376823     -0.99744663      5.08258413
    C      1.50100118      2.46278488      4.92159577
    H      0.69055956      3.11467229      5.17284738
    H      1.81051441      1.92594646      5.79389456
    H      1.18205716      1.77013774      4.17098685
    C      2.68100666      3.29409591      4.38483789
    N      3.55957438      3.91304475      3.98519725
    C      4.95828993      3.60035220      0.84522086
    H      4.45411095      3.04157437      1.60579371
    H      5.30076223      4.52865821      1.25247971
    H      5.79477984      3.03857866      0.48522890
    C      3.98710479      3.87704232     -0.31746655
    N      3.26401331      4.08305069     -1.18314017
    C      3.69783662      0.75333373     -2.24456789
    H      3.26301710      0.69286293     -1.26877311
    H      3.02578963      1.26218026     -2.90360290
    H      4.62089158      1.29184722     -2.19097822
    C      3.96238830     -0.66705155     -2.77759517
    N      4.15935905     -1.72459294     -3.17445821
    C      1.26015810     -1.68701046      1.55539508
    H      1.15929388     -2.71899208      1.81947939
    H      0.44749052     -1.13072023      1.97373904
    H      2.18525070     -1.30961513      1.93837751
    C      1.24351917     -1.54553736      0.02199738
    N      1.23113073     -1.44020421     -1.11968691
    C     -1.69687005     -4.00719581      0.71760444
    H     -1.56457085     -3.01305779      1.09054774
    H     -0.97491596     -4.65604493      1.16780020
    H     -2.68209033     -4.34955542      0.95641397
    C     -1.50837513     -4.01141182     -0.81081039
    N     -1.36803210     -4.01455084     -1.94878470
    C     -5.52305419      1.08584999     -0.90207333
    H     -4.82526435      0.51666848     -0.32412702
    H     -6.49509929      1.01267667     -0.46085561
    H     -5.21689574      2.11090979     -0.92253079
    C     -5.56897100      0.53503995     -2.33946679
    N     -5.60315816      0.12493684     -3.40967155
    C     -1.44703705      0.22241245      4.05314196
    H     -0.86948892      0.60585494      3.23808970
    H     -0.96580555      0.46638122      4.97715201
    H     -2.42413213      0.65809200      4.03396865
    C     -1.56460194     -1.30764637      3.92391919
    N     -1.65213434     -2.44684470      3.82770696
    C     -4.73309971     -1.88282276      2.34188536
    H     -5.60422451     -2.25442728      1.84393775
    H     -4.66397856     -2.32202304      3.31513995
    H     -3.86236778     -2.13576627      1.77377923
    C     -4.83201721     -0.35181767      2.47544704
    N     -4.90566579      0.78808522      2.57488977
    C      4.45724166      0.27173074      3.37648598
    H      3.40591239      0.44049056      3.48197092
    H      4.99512651      1.07930839      3.82748189
    H      4.72131160     -0.64611997      3.85889269
    C      4.81615514      0.18755335      1.88126182
    N      5.08338254      0.12487946      0.76799947
    C     -3.06944810      1.24457372     -5.54956293
    H     -2.15192122      1.79506626     -5.55116622
    H     -3.66639470      1.54869781     -4.71525940
    H     -3.60185877      1.43605843     -6.45773229
    C     -2.76457014     -0.26103290     -5.44094363
    N     -2.53757465     -1.38202546     -5.36007163
    C     -0.87388443      4.22718309     -3.52891009
    H     -0.69161535      5.13210308     -2.98780201
    H     -1.18479554      4.46372457     -4.52504337
    H      0.02361355      3.64566388     -3.56400827
    C     -1.98046421      3.42128336     -2.82349758
    N     -2.80436316      2.82125439     -2.29828589
    C     -3.05607035      3.22509064      1.13007397
    H     -3.98990338      3.36616238      1.63302010
    H     -3.04085070      2.25891529      0.67053871
    H     -2.93759318      3.97877157      0.37985580
    C     -1.90447029      3.32788607      2.14734994
    N     -1.04705170      3.40442195      2.90475814
