120
Energy:   -594.48413001
    C      4.65299940     -3.03380885      0.74105518
    H      5.30637828     -3.50177038      1.44746033
    H      4.95517345     -3.29488185     -0.25163350
    H      3.64997096     -3.36701466      0.90780929
    C      4.72132877     -1.50497412      0.91308851
    N      4.77220309     -0.36668717      1.04117515
    C      1.42403499     -1.77398463     -4.46881466
    H      2.01573091     -2.09363661     -3.63657748
    H      1.96558295     -1.94075165     -5.37645647
    H      0.51025788     -2.33022415     -4.49135514
    C      1.10816635     -0.27333309     -4.32784668
    N      0.87298778      0.84397019     -4.22288961
    C      1.15387924      5.71529241      1.41844203
    H      0.56686391      5.83449366      2.30506723
    H      1.74588447      6.59276148      1.26199103
    H      1.79615642      4.86646097      1.52736538
    C      0.22229682      5.50251455      0.21076667
    N     -0.47130863      5.34409176     -0.68840253
    C     -1.66894662     -0.78871436     -2.20290466
    H     -1.04960533     -1.65396753     -2.31539239
    H     -1.21754426      0.04084875     -2.70585599
    H     -2.63206786     -0.98188871     -2.62714544
    C     -1.82384272     -0.45932009     -0.70654019
    N     -1.93916990     -0.21407108      0.40757117
    C      2.19407000     -4.67823418     -1.87806489
    H      2.70200993     -3.73654329     -1.88881132
    H      2.60086115     -5.31159662     -2.63850691
    H      2.32180249     -5.14148676     -0.92204159
    C      0.69369906     -4.45525882     -2.14408938
    N     -0.42339531     -4.28924354     -2.34215670
    C      0.56306424      2.11806095     -0.77368631
    H      0.76674481      1.19795051     -1.28045172
    H      1.03861227      2.92393044     -1.29265405
    H     -0.49356622      2.28467948     -0.74781320
    C      1.10624178      2.04267625      0.66536731
    N      1.51066215      1.98654891      1.73680814
    C     -3.78423808     -3.82686699     -3.67747186
    H     -2.72357192     -3.88157729     -3.80744976
    H     -4.19823859     -3.15684303     -4.40174430
    H     -4.21012984     -4.79984361     -3.80720923
    C     -4.10198802     -3.31209876     -2.26126261
    N     -4.33856730     -2.92883041     -1.20683045
    C      1.04810416     -3.72879193      4.88735585
    H      0.54331178     -2.86322086      5.26268446
    H      1.19537559     -4.42884109      5.68305767
    H      0.45676275     -4.18138591      4.11899844
    C      2.41375908     -3.31562199      4.30780668
    N      3.43055125     -3.00799820      3.87630599
    C      0.74140279      3.40272697      4.87684896
    H      0.06654678      4.23301193      4.86702904
    H      0.79185585      2.99578175      5.86515517
    H      0.39269088      2.65163713      4.19923318
    C      2.14196324      3.87444295      4.44381957
    N      3.18474416      4.22565694      4.12140951
    C      4.95563427      3.11686605      1.40045085
    H      4.29107170      2.67992993      2.11623265
    H      5.47395209      3.93805055      1.84978563
    H      5.66339903      2.38277724      1.07628769
    C      4.14746377      3.62037566      0.19010440
    N      3.54574410      3.99526146     -0.71105354
    C      3.95496146      0.80353074     -2.08666933
    H      3.41322145      0.84363781     -1.16481828
    H      3.35510940      1.21554366     -2.87109392
    H      4.85863240      1.36897525     -1.99420076
    C      4.29739067     -0.66100409     -2.41754690
    N      4.55234478     -1.75141685     -2.66390029
    C      1.18319797     -1.30360008      1.74433524
    H      0.83151365     -2.24291658      2.11703197
    H      0.48065044     -0.53572369      1.99271380
    H      2.13077496     -1.07665572      2.18648136
    C      1.33670150     -1.38348486      0.21408850
    N      1.45099185     -1.44296271     -0.92524976
    C     -1.81965924     -4.16142387      0.81982124
    H     -1.87529717     -3.12049966      0.57840587
    H     -2.42849400     -4.36189414      1.67657733
    H     -2.17006150     -4.73919583     -0.00981537
    C     -0.35899537     -4.53949024      1.12824768
    N      0.72853528     -4.82097784      1.35788518
    C     -5.33460566      0.72995088     -1.57415981
    H     -6.33716468      0.64528816     -1.21000626
    H     -5.07518223      1.76381369     -1.66757425
    H     -4.66472276      0.25468915     -0.88838850
    C     -5.22917635      0.04783269     -2.95082224
    N     -5.15067944     -0.46003530     -3.97581000
    C     -1.76155525      0.51246622      3.80038756
    H     -2.75410339      0.88405309      3.65317494
    H     -1.11132022      0.92879526      3.05960174
    H     -1.41721135      0.79108362      4.77439922
    C     -1.76447806     -1.02254723      3.67659261
    N     -1.76665422     -2.16543451      3.58442164
    C     -4.80016878     -1.78973811      1.91988309
    H     -4.81932937     -2.16957961      2.92000983
    H     -3.86070232     -2.02720377      1.46610789
    H     -5.59204923     -2.23451805      1.35420187
    C     -4.98500569     -0.26112392      1.94770345
    N     -5.12262517      0.87699883      1.96841697
    C      3.69618581      0.52953146      4.23846069
    H      4.11602842      1.34355203      4.79163596
    H      3.60143473      0.80858074      3.20984374
    H      4.33627340     -0.32411438      4.31893262
    C      2.30704688      0.18493925      4.80692287
    N      1.27276981     -0.07162532      5.23016880
    C     -2.58030507      0.83966535     -5.96644492
    H     -3.02609054      0.93818094     -6.93415881
    H     -1.71300500      1.46359193     -5.90809001
    H     -3.28439832      1.13669085     -5.21749389
    C     -2.17360235     -0.62760861     -5.73557697
    N     -1.87079368     -1.72006077     -5.56368529
    C     -0.61009171      4.01157077     -3.85422414
    H     -0.65231289      4.98379893     -3.40937591
    H     -0.75384723      4.09638316     -4.91112541
    H      0.34509964      3.57092478     -3.65841892
    C     -1.71718778      3.12442178     -3.25513736
    N     -2.54147113      2.46389904     -2.80909003
    C     -3.23560163      3.24970928      0.45654679
    H     -4.24989854      3.36262506      0.77803085
    H     -3.08257251      2.25151864      0.10285678
    H     -3.03237109      3.94288787     -0.33281997
    C     -2.28851822      3.52618481      1.63899945
    N     -1.58337157      3.73203340      2.51938920
