120
Energy:   -594.18815461
    C      4.65503675     -2.61467378      0.20074795
    H      5.58153731     -2.93877666     -0.22522648
    H      3.86035785     -2.79878096     -0.49170356
    H      4.47095713     -3.15380608      1.10647977
    C      4.73024928     -1.10728100      0.50686901
    N      4.78624842      0.01504143      0.73479006
    C      1.36321281     -2.29326333     -4.13693074
    H      0.67835368     -2.33537906     -3.31589821
    H      1.14941842     -3.08789891     -4.82084985
    H      1.26117792     -1.35371770     -4.63866970
    C      2.80345861     -2.44121057     -3.61214162
    N      3.87578709     -2.55136401     -3.22141227
    C      1.13508854      5.61773280      1.78576254
    H      1.41486325      4.61992900      2.05224679
    H      0.67497468      6.09543814      2.62540052
    H      2.00637606      6.16715055      1.49611226
    C      0.14063760      5.57553487      0.61065119
    N     -0.59977632      5.54411659     -0.26427262
    C     -1.50714151     -0.55164112     -2.37871523
    H     -0.50763841     -0.21137121     -2.55223795
    H     -2.19078936      0.04664922     -2.94402345
    H     -1.59340792     -1.57425197     -2.68157532
    C     -1.83757839     -0.43067084     -0.87945620
    N     -2.08360367     -0.34060297      0.23681030
    C      2.35747211     -5.58324327     -1.99487171
    H      3.30718605     -5.14436948     -2.21922281
    H      1.61942260     -5.19982282     -2.66805130
    H      2.42113748     -6.64586071     -2.10299204
    C      1.96120233     -5.23735692     -0.54748341
    N      1.66616146     -4.97982880      0.53016297
    C      0.36748954      2.11564950     -0.25842008
    H     -0.68481385      2.24861035     -0.11742658
    H      0.53646091      1.32061720     -0.95431620
    H      0.79331946      3.02009942     -0.63991493
    C      1.02595175      1.76680508      1.08929469
    N      1.51620679      1.50707455      2.09272959
    C     -3.78568398     -3.25745363     -4.23535046
    H     -4.36579091     -4.10063586     -4.54747202
    H     -2.74512720     -3.50090679     -4.28893436
    H     -3.99097572     -2.42610888     -4.87692687
    C     -4.15292158     -2.89002532     -2.78561498
    N     -4.42634667     -2.61645824     -1.70622101
    C      0.84507240     -3.43369549      5.18384828
    H     -0.03739288     -3.73503673      4.65911152
    H      0.86594915     -3.90269491      6.14535896
    H      1.70956334     -3.72640727      4.62539119
    C      0.84089511     -1.90369192      5.35898140
    N      0.83778492     -0.76453471      5.48937596
    C      0.74040622      2.74031587      5.24201183
    H     -0.09076558      3.41398607      5.25691413
    H      0.91444321      2.36669908      6.22944320
    H      0.52607341      1.92392006      4.58439612
    C      1.99467035      3.48346424      4.74587477
    N      2.92852700      4.03677199      4.37647817
    C      4.63601309      3.29484104      1.51375528
    H      4.03672689      2.64943713      2.12138183
    H      4.90907621      4.16274204      2.07685694
    H      5.52010108      2.77617281      1.20671979
    C      3.83310322      3.72110685      0.27068118
    N      3.23530033      4.03848112     -0.65484398
    C      3.49326476      1.05366459     -2.36854444
    H      4.10029076      1.93195401     -2.43944794
    H      4.04381532      0.20959992     -2.72819428
    H      3.21857438      0.89144751     -1.34720713
    C      2.22256641      1.23787818     -3.21883324
    N      1.27647372      1.37503358     -3.85191190
    C      1.05813877     -1.97393411      1.78967286
    H      0.08283675     -2.39483879      1.91822400
    H      1.15633016     -1.10600426      2.40769819
    H      1.79754022     -2.69551965      2.06805906
    C      1.25633739     -1.57877171      0.31449016
    N      1.40390527     -1.28455534     -0.78385041
    C     -1.85541018     -4.07963406      0.40721845
    H     -1.18636904     -4.61092852      1.05143141
    H     -2.82422776     -4.53200234      0.44789431
    H     -1.92389828     -3.06062828      0.72633551
    C     -1.32538357     -4.13050170     -1.03780206
    N     -0.93075467     -4.16837498     -2.11368552
    C     -5.22534632      1.00426427     -1.73286963
    H     -4.69323899      0.37568841     -1.04974859
    H     -6.27532512      0.93240146     -1.53979103
    H     -4.90791433      2.01816796     -1.60584476
    C     -4.93686281      0.55310816     -3.17676555
    N     -4.72207371      0.21720192     -4.25181169
    C     -1.89268219      0.30633087      3.60146270
    H     -2.82004959      0.78225934      3.35983909
    H     -1.14011008      0.61881525      2.90800194
    H     -1.59927203      0.57979799      4.59344319
    C     -2.06339922     -1.22198521      3.51957466
    N     -2.19050582     -2.35988600      3.45860530
    C     -5.04017021     -1.89398516      1.53153933
    H     -5.84618695     -2.23621186      0.91662626
    H     -5.08878633     -2.37733962      2.48490392
    H     -4.10822103     -2.12733117      1.06045604
    C     -5.15144811     -0.36991893      1.72243027
    N     -5.23429957      0.76481765      1.86455725
    C      4.00194040      0.35400354      4.24575946
    H      4.44853494      0.51709745      5.20432812
    H      3.00548571      0.74384594      4.24554681
    H      4.57935256      0.85054310      3.49413272
    C      3.96228603     -1.15645989      3.94822330
    N      3.93276155     -2.28106857      3.72669411
    C     -1.75006694      1.26482658     -5.86925449
    H     -0.82237783      1.75151717     -5.65148085
    H     -2.47976348      1.54452661     -5.13835783
    H     -2.08767319      1.55903463     -6.84103777
    C     -1.54912725     -0.26164538     -5.83598904
    N     -1.39951852     -1.39817314     -5.81122141
    C     -0.31138577      4.35730405     -3.36359707
    H     -0.62887791      5.37798034     -3.31544276
    H     -0.06643467      4.10729968     -4.37473299
    H      0.55044425      4.22225000     -2.74399356
    C     -1.44737393      3.44248784     -2.86938840
    N     -2.29316875      2.76136559     -2.50142758
    C     -3.29772549      3.30342736      0.80013572
    H     -3.21225870      2.32028884      0.38657285
    H     -3.09706698      4.02893526      0.03969273
    H     -4.28873511      3.44680567      1.17728513
    C     -2.28321717      3.46786559      1.94701538
    N     -1.52786962      3.59029732      2.80091942
