120
Energy:   -598.26124768
    C      5.08207651     -2.83169303      0.58837394
    H      5.13904083     -3.01608182     -0.46407844
    H      4.29740965     -3.42299791      1.01211389
    H      6.01285346     -3.09270554      1.04709588
    C      4.78980064     -1.33960843      0.83303362
    N      4.57218796     -0.22868362      1.01519387
    C      1.33211761     -1.67320385     -4.47348901
    H      2.38507963     -1.86048565     -4.50660547
    H      0.88246640     -2.00199915     -5.38705703
    H      0.90079540     -2.20579140     -3.65177693
    C      1.08458215     -0.16390799     -4.29362186
    N      0.90028074      0.95983139     -4.15970260
    C      1.08753585      5.55679186      1.89428763
    H      0.63317720      6.13835608      2.66904015
    H      2.00351239      6.01959938      1.59147535
    H      1.28946877      4.57158931      2.25966158
    C      0.13251701      5.47163230      0.68917898
    N     -0.57853793      5.40822714     -0.20807919
    C     -1.75312520     -0.48918344     -2.28553085
    H     -1.12281473     -1.32124911     -2.52063849
    H     -1.32337730      0.40700262     -2.68184688
    H     -2.72058807     -0.64164926     -2.71642395
    C     -1.88639373     -0.36203180     -0.75658613
    N     -1.98561821     -0.26736163      0.38178271
    C      2.57796649     -4.49803954     -2.04675815
    H      3.45827932     -5.07606277     -2.23606909
    H      2.78502835     -3.46370368     -2.22612870
    H      1.79187873     -4.82227070     -2.69624971
    C      2.14433774     -4.68813846     -0.58134745
    N      1.82148143     -4.82967576      0.50971742
    C      0.48677859      2.17206604     -0.52876852
    H      0.69018853      1.32037863     -1.14371008
    H      0.97983801      3.03073762     -0.93432324
    H     -0.56839098      2.34720917     -0.49976583
    C      1.00303967      1.90993843      0.89824361
    N      1.38741951      1.71477251      1.96071900
    C     -4.00340618     -3.38921757     -4.06112810
    H     -4.33335458     -2.60565648     -4.71079436
    H     -4.54226748     -4.28672505     -4.28250542
    H     -2.95667799     -3.55646963     -4.20702511
    C     -4.25947626     -2.98450128     -2.59749125
    N     -4.45013207     -2.68317161     -1.50774708
    C      1.21106934     -4.34106830      4.17951472
    H      0.57924419     -3.56691327      4.56211261
    H      1.28963318     -5.12677581      4.90158849
    H      0.79196143     -4.72887448      3.27460919
    C      2.61055661     -3.76628935      3.89200033
    N      3.65253850     -3.33834030      3.67793279
    C      0.62232448      2.83317697      5.23190907
    H     -0.08555095      3.63037154      5.32297698
    H      0.69916671      2.31604068      6.16548521
    H      0.29735883      2.15260740      4.47288240
    C      1.99825065      3.40961486      4.84961790
    N      3.02269023      3.83879907      4.56498474
    C      4.76054885      3.10164412      1.75388206
    H      4.10702493      2.49531507      2.34563517
    H      5.13892284      3.90536190      2.35034660
    H      5.57577356      2.50623372      1.39920726
    C      3.98324351      3.67449883      0.55420131
    N      3.40450436      4.10101519     -0.33901554
    C      3.85188309      1.06608904     -2.05683655
    H      3.25540563      1.03699921     -1.16899163
    H      3.28996518      1.51421730     -2.84950824
    H      4.73444142      1.64303876     -1.87485050
    C      4.24888296     -0.36739190     -2.45573942
    N      4.54446741     -1.43468361     -2.75274074
    C      1.13720596     -1.61949593      1.59524753
    H      0.73287086     -2.58922105      1.79784689
    H      0.48003184     -0.87048002      1.98511474
    H      2.09677684     -1.52896541      2.05992703
    C      1.28392121     -1.43213560      0.07374474
    N      1.39315738     -1.29263731     -1.05908324
    C     -1.65983919     -4.01340744      0.32250424
    H     -1.59734555     -3.02091699      0.71741869
    H     -1.02373524     -4.66263747      0.88710252
    H     -2.67018974     -4.35979957      0.38656173
    C     -1.21114719     -4.00890011     -1.15067435
    N     -0.87707560     -4.00554419     -2.24752278
    C     -5.39224084      1.01195404     -1.55810495
    H     -6.40282447      0.90791323     -1.22225317
    H     -5.11887823      2.04642354     -1.55140952
    H     -4.74186769      0.46695483     -0.90626929
    C     -5.26724459      0.45722270     -2.98927548
    N     -5.17417920      0.04420001     -4.05484699
    C     -1.82235778      0.13161039      3.80390856
    H     -2.80931374      0.51427797      3.64775594
    H     -1.14764040      0.59264681      3.11318360
    H     -1.51057515      0.34679076      4.80460237
    C     -1.82170155     -1.39239424      3.58252779
    N     -1.82121295     -2.52708496      3.41769974
    C     -4.83512309     -1.99166659      1.74055795
    H     -5.62699237     -2.41272734      1.15699041
    H     -4.84012785     -2.42919169      2.71700346
    H     -3.89726626     -2.19055458      1.26540825
    C     -5.03803328     -0.46969204      1.85896796
    N     -5.18910913      0.66348719      1.94712959
    C      3.59194423      0.14363790      4.33465678
    H      3.95182945      0.88509091      5.01702781
    H      3.50975680      0.56916420      3.35635637
    H      4.27519578     -0.67942110      4.30935280
    C      2.20889303     -0.35135116      4.79699349
    N      1.17914855     -0.71989300      5.14122419
    C     -2.45625590      1.29154786     -5.87132704
    H     -1.55820806      1.86619171     -5.78080247
    H     -3.13111327      1.55820935     -5.08496945
    H     -2.91404802      1.49190514     -6.81746785
    C     -2.11860429     -0.20767031     -5.77164620
    N     -1.86720732     -1.32390639     -5.69742928
    C     -0.47790696      4.25527409     -3.53067980
    H      0.09285062      4.63773153     -2.71039797
    H     -0.84565594      5.06939706     -4.11963104
    H      0.14340265      3.62906704     -4.13626892
    C     -1.66431108      3.43436138     -2.99202630
    N     -2.54764287      2.82315455     -2.59097429
    C     -3.28424539      3.19308146      0.76040904
    H     -3.08093988      3.95800954      0.04037287
    H     -4.29661962      3.27910221      1.09596519
    H     -3.13758694      2.23283514      0.31172496
    C     -2.33086807      3.35038841      1.95954465
    N     -1.62103532      3.46751059      2.85235561
