120
Energy:   -594.09054549
    C      4.74007940     -3.29741366      0.44216510
    H      4.74142394     -2.35714308      0.95284074
    H      5.69182333     -3.77091038      0.56416277
    H      3.97498286     -3.92404817      0.85064467
    C      4.46951106     -3.06733340     -1.05631942
    N      4.26806064     -2.89602819     -2.17200925
    C      1.29119159     -1.66935530     -4.50420301
    H      2.09386175     -1.94142512     -3.85105769
    H      1.59157338     -1.81939832     -5.52015427
    H      0.43662882     -2.27711004     -4.29146907
    C      0.93355231     -0.18711320     -4.28821112
    N      0.66727361      0.91648342     -4.12739535
    C      1.41583712      5.66875699      1.67608733
    H      0.85488888      5.91711795      2.55275949
    H      2.12847675      6.44186752      1.47773420
    H      1.92842512      4.74242099      1.83118168
    C      0.45976970      5.53183275      0.47659292
    N     -0.25206596      5.42988644     -0.41648519
    C     -1.85281916     -0.72421872     -2.18519274
    H     -1.07556080     -1.42961691     -2.39299795
    H     -1.71937802      0.14387606     -2.79634249
    H     -2.80309799     -1.16759076     -2.39800832
    C     -1.79585441     -0.32025514     -0.70021178
    N     -1.75344156     -0.01948589      0.40542404
    C      1.38382881     -4.88816893     -2.07390069
    H      1.08697850     -3.92816594     -2.44156130
    H      0.70670578     -5.63357608     -2.43552436
    H      2.37360997     -5.11007677     -2.41447264
    C      1.36107731     -4.87764511     -0.53410472
    N      1.34413779     -4.86980965      0.61234337
    C      0.65125376      2.16128140     -0.68498752
    H     -0.39363490      2.38401745     -0.62585625
    H      0.79071723      1.24330270     -1.21674323
    H      1.15589663      2.95193476     -1.19986803
    C      1.22808176      2.02396106      0.73628395
    N      1.65755642      1.92171983      1.79448516
    C     -4.17552151     -3.59117749     -3.94575272
    H     -4.80546571     -3.20794747     -3.17037847
    H     -4.61314582     -4.47749041     -4.35542754
    H     -4.07088331     -2.85612282     -4.71623605
    C     -2.78961921     -3.92504405     -3.36316544
    N     -1.75775195     -4.17362288     -2.92940273
    C      1.25115783     -4.04773562      4.34925126
    H      0.72493606     -3.21697683      4.77095100
    H      1.30011035     -4.84020611      5.06653312
    H      0.73702101     -4.38908389      3.47515528
    C      2.67804398     -3.61155502      3.96801330
    N      3.74042558     -3.28679873      3.68416432
    C      1.07046123      3.12417231      5.06929030
    H      0.40078979      3.94341105      5.22831303
    H      1.17604869      2.56835310      5.97748378
    H      0.67877297      2.48662094      4.30443238
    C      2.44606122      3.66264344      4.63411964
    N      3.47025794      4.06355967      4.31011531
    C      5.01565478      3.38172816      1.42716823
    H      5.93048290      2.90408064      1.14460401
    H      4.43717089      2.71499955      2.03192308
    H      5.23375605      4.26939969      1.98337878
    C      4.21766631      3.75119156      0.16292490
    N      3.62352762      4.02627386     -0.77836173
    C      3.88607632      0.73163869     -2.36602950
    H      3.08801801      1.44104017     -2.43496904
    H      3.59848843     -0.17710426     -2.85221728
    H      4.75875955      1.12930284     -2.84056749
    C      4.19258433      0.44620178     -0.88407856
    N      4.42079348      0.23368103      0.21930128
    C      1.40415409     -1.52160379      1.51957293
    H      0.93096864     -2.42169484      1.85248704
    H      0.88625143     -0.67636258      1.92236721
    H      2.42088773     -1.50889224      1.85272487
    C      1.36724366     -1.46095601     -0.01878966
    N      1.33976216     -1.41580098     -1.16417053
    C     -2.00307780     -3.85816039      0.56022172
    H     -1.24217876     -3.10891515      0.62778214
    H     -1.68285387     -4.63274964     -0.10488520
    H     -2.18266472     -4.27260370      1.53021366
    C     -3.30061806     -3.22519427      0.02417775
    N     -4.26669577     -2.75392222     -0.37493136
    C     -5.28809646      0.74171264     -1.16885629
    H     -6.30469550      0.84555879     -0.85161419
    H     -4.81589912      1.70187500     -1.17297915
    H     -4.76901125      0.09185548     -0.49570303
    C     -5.25165957      0.14564321     -2.58835394
    N     -5.22453065     -0.29815758     -3.64523447
    C     -1.39994206      0.46379216      3.74252746
    H     -2.36218383      0.91221937      3.60872161
    H     -0.72031461      0.85365911      3.01382355
    H     -1.03637819      0.68576754      4.72408099
    C     -1.51644911     -1.06220608      3.57119310
    N     -1.60319390     -2.19838114      3.44362688
    C     -5.16269617     -1.65785263      2.72091540
    H     -5.60125211     -1.79703852      3.68693618
    H     -4.21492497     -2.15315251      2.68476483
    H     -5.80863533     -2.06880859      1.97340160
    C     -4.96591560     -0.15319535      2.45845802
    N     -4.81940353      0.96709039      2.26304657
    C      3.99068695      0.27491623      3.85868542
    H      4.41664065      1.11552896      4.36547321
    H      3.83712904      0.51982537      2.82847254
    H      4.65586675     -0.56002959      3.93148936
    C      2.64127660     -0.08572661      4.50724415
    N      1.63657925     -0.35424160      4.99012561
    C     -2.75693175      1.07388893     -5.74300102
    H     -1.90599004      1.72256880     -5.73942205
    H     -3.36140362      1.27376926     -4.88302387
    H     -3.33109459      1.24364725     -6.62980328
    C     -2.28529797     -0.39173114     -5.70954391
    N     -1.93414518     -1.48295191     -5.68463358
    C     -0.60458316      4.15561903     -3.64840582
    H      0.11762575      4.39929940     -2.89745020
    H     -1.01303494      5.05662128     -4.05615719
    H     -0.13341323      3.59318931     -4.42723237
    C     -1.73429338      3.31760862     -3.02143423
    N     -2.57541399      2.69367178     -2.55462538
    C     -3.01652029      3.40454835      0.78215804
    H     -4.02266170      3.54685545      1.11731221
    H     -2.90159904      2.40723978      0.41193134
    H     -2.79880000      4.10236618      0.00078281
    C     -2.04718219      3.63077571      1.95723457
    N     -1.32546592      3.79921226      2.83213245
