120
Energy:   -593.94109911
    C      4.99084741     -2.99839056      1.16728962
    H      6.01151508     -3.24626519      1.37148524
    H      4.35812095     -3.79899899      1.48913192
    H      4.72912850     -2.10370465      1.69258899
    C      4.80918133     -2.77703724     -0.34585285
    N      4.67392267     -2.61222963     -1.47245620
    C      1.57437942     -1.67716415     -4.20938787
    H      2.48186469     -1.89640301     -3.68660206
    H      1.70711599     -1.87460686     -5.25260236
    H      0.78561063     -2.29121832     -3.82770691
    C      1.21247439     -0.19367255     -4.00969451
    N      0.94301963      0.91085437     -3.86101372
    C      0.96411002      5.57763489      2.20472348
    H      1.61941020      6.42347505      2.19869982
    H      1.53092307      4.68861567      2.38711559
    H      0.23252128      5.69872464      2.97609516
    C      0.25812020      5.46550155      0.84068371
    N     -0.26752132      5.38201318     -0.17490589
    C     -1.96014344     -0.55447055     -2.34526610
    H     -1.31608253     -1.36814083     -2.60608481
    H     -1.64528781      0.32891535     -2.86043051
    H     -2.96535074     -0.79140897     -2.62511888
    C     -1.89351925     -0.31379431     -0.82564899
    N     -1.84391451     -0.13459991      0.30577502
    C      2.27228765     -4.96908625     -1.82341176
    H      3.27277859     -5.29646647     -2.01508924
    H      2.13308099     -3.98982853     -2.23154767
    H      1.58158012     -5.64711642     -2.27958859
    C      2.02678419     -4.93144590     -0.30357254
    N      1.84399570     -4.90342095      0.82801684
    C      0.59977842      2.10686189     -0.47356042
    H      0.83684927      1.18960406     -0.97088894
    H      1.16684742      2.90425604     -0.90656667
    H     -0.44472510      2.31196779     -0.58238627
    C      0.94572302      1.98417660      1.02205673
    N      1.20329450      1.89283182      2.13561168
    C     -3.59665256     -3.63714921     -4.43599662
    H     -2.55227262     -3.59395474     -4.66469938
    H     -4.06994953     -4.36150279     -5.06544158
    H     -3.72610798     -3.91624136     -3.41118056
    C     -4.23226724     -2.25510276     -4.67587487
    N     -4.70551127     -1.22610635     -4.85447513
    C      0.98076796     -4.21273561      4.46989793
    H      0.33182335     -3.43507899      4.81489249
    H      0.99611732     -5.00812162      5.18545686
    H      0.62509168     -4.58399420      3.53151606
    C      2.40458199     -3.65288272      4.29406180
    N      3.46467626     -3.23604679      4.16314381
    C      0.21338722      2.91426022      5.38805790
    H     -0.48768898      3.71532142      5.49619343
    H      0.21770152      2.32138677      6.27877758
    H     -0.06762187      2.30436781      4.55501275
    C      1.62064903      3.49241568      5.14941496
    N      2.66841942      3.92287870      4.97173444
    C      4.51877301      3.50908518      2.18735304
    H      3.87185777      2.82239295      2.69218434
    H      4.61262838      4.40309515      2.76772915
    H      5.48315723      3.06319660      2.06068199
    C      3.92677238      3.85244944      0.80777475
    N      3.48600101      4.10809975     -0.21938399
    C      3.95575609      0.84538765     -1.85454459
    H      3.64953596     -0.05571773     -2.34356250
    H      4.90810289      1.15141061     -2.23439274
    H      3.23453621      1.61400821     -2.03883629
    C      4.06383435      0.59562203     -0.33878200
    N      4.14430354      0.40966017      0.78977214
    C      1.25179122     -1.60549757      1.71506601
    H      0.80884135     -2.52851090      2.02609975
    H      0.67739813     -0.78761060      2.09720810
    H      2.25184198     -1.54533735      2.09080305
    C      1.27667911     -1.54077981      0.17662777
    N      1.29520928     -1.49259450     -0.96880943
    C     -1.60447063     -3.96212154      0.27912992
    H     -0.88070273     -4.49948858      0.85558188
    H     -2.56929153     -4.40380285      0.41674291
    H     -1.63016426     -2.94183412      0.60045923
    C     -1.22055421     -4.02147505     -1.21106649
    N     -0.93471099     -4.06566644     -2.32058546
    C     -5.38413550      1.38209024     -2.89673704
    H     -5.61977540      2.39520260     -3.14768996
    H     -6.09367891      0.72643003     -3.35669021
    H     -4.40121625      1.14696773     -3.24814314
    C     -5.43844713      1.20602672     -1.36779889
    N     -5.47888461      1.07493942     -0.22943493
    C     -1.92569538      0.17507432      3.64930964
    H     -1.77554769      0.40049061      4.68446342
    H     -2.87271904      0.56062773      3.33404176
    H     -1.14671279      0.62471259      3.06973164
    C     -1.89994221     -1.35141101      3.44737080
    N     -1.88076781     -2.48794873      3.29701815
    C     -4.89878369     -1.74419067      1.39974608
    H     -5.94107176     -1.55694201      1.55295736
    H     -4.34723829     -0.84087905      1.55698754
    H     -4.56522732     -2.49051418      2.09013761
    C     -4.67255251     -2.23963518     -0.04072405
    N     -4.50411312     -2.60851613     -1.11321953
    C      3.41937141      0.29119998      4.37934753
    H      4.11733874     -0.51081578      4.49981541
    H      3.73815358      1.13165508      4.95978895
    H      3.36972233      0.56879731      3.34717807
    C      2.02746724     -0.16365740      4.85611536
    N      0.99113133     -0.50231940      5.21109069
    C     -2.15686751      1.04092093     -5.90675565
    H     -1.39815115      1.68268681     -5.51003634
    H     -3.00791999      1.05154484     -5.25829909
    H     -2.44411319      1.38619677     -6.87792691
    C     -1.61055252     -0.39497434     -6.01326717
    N     -1.20379617     -1.46406363     -6.09256983
    C     -0.03234265      4.28024671     -3.46973617
    H      0.02978124      5.16082669     -2.86507122
    H     -0.05237568      4.55773343     -4.50293455
    H      0.81878810      3.65906568     -3.28369945
    C     -1.31791635      3.50753132     -3.12072156
    N     -2.27508440      2.93220959     -2.86086432
    C     -3.11181476      3.36326781      0.47723699
    H     -4.16816443      3.48468807      0.59674707
    H     -2.90829485      2.39746990      0.06406253
    H     -2.73821394      4.11902586     -0.18166458
    C     -2.42208207      3.49081399      1.84822233
    N     -1.90854473      3.58577793      2.86898323
