120
Energy:   -593.07823127
    C      4.85661461     -3.15846536      0.49432493
    H      4.87872075     -2.25066451      1.06028352
    H      5.78458646     -3.67714484      0.61572896
    H      4.05478246     -3.77593000      0.84174646
    C      4.64325104     -2.82982115     -0.99499336
    N      4.48439217     -2.58513061     -2.10385853
    C      1.59639677     -1.37042916     -4.47186776
    H      2.44658536     -1.61467805     -3.86985279
    H      1.84314099     -1.49642641     -5.50537686
    H      0.78222479     -2.01670676     -4.21819798
    C      1.18943181      0.09260775     -4.21593314
    N      0.88642790      1.18190522     -4.02537818
    C      1.07787556      5.55746194      2.06731212
    H      0.45084194      5.69631582      2.92314425
    H      1.74262337      6.39062544      1.97324824
    H      1.64670893      4.65872972      2.18396580
    C      0.20489893      5.45198590      0.80303897
    N     -0.44507185      5.37345420     -0.13826986
    C     -1.75185802     -0.54704670     -2.32489968
    H     -1.44330805      0.37327143     -2.77513479
    H     -2.71409944     -0.82374624     -2.70229588
    H     -1.04306700     -1.31375122     -2.55873415
    C     -1.83116033     -0.36989463     -0.79717971
    N     -1.89020451     -0.23799687      0.34027724
    C      1.84725923     -4.82236464     -2.23595737
    H      1.77513546     -3.80907862     -2.57203738
    H      1.09174819     -5.41100516     -2.71303651
    H      2.81245837     -5.21234740     -2.48335010
    C      1.64926909     -4.87225318     -0.70955276
    N      1.50185642     -4.90939747      0.42692485
    C      0.55194417      2.14961511     -0.53107822
    H      0.77439379      1.27402446     -1.10445189
    H      1.02550994      2.99857234     -0.97818691
    H     -0.50689571      2.30220108     -0.50929005
    C      1.07414113      1.96833727      0.90629740
    N      1.46294051      1.83336768      1.97648888
    C     -4.03909142     -3.33645944     -4.39340791
    H     -3.00151943     -3.34776381     -4.65459127
    H     -4.57947197     -3.98502113     -5.05086947
    H     -4.15660150     -3.67288098     -3.38449215
    C     -4.58554974     -1.90254753     -4.52333070
    N     -4.99241280     -0.83493494     -4.62006413
    C      1.29216837     -4.26011991      4.26625182
    H      0.73210533     -3.49325324      4.75934926
    H      1.37539876     -5.11083896      4.90987353
    H      0.79158337     -4.54316319      3.36392136
    C      2.69892163     -3.73206351      3.92890673
    N      3.74631337     -3.33890151      3.67773798
    C      0.69829450      2.88604275      5.26251825
    H      0.01334235      3.68888232      5.43912331
    H      0.76289615      2.27335960      6.13735828
    H      0.35242916      2.29673704      4.43911371
    C      2.08892553      3.46052035      4.93430974
    N      3.12431354      3.88824505      4.68994358
    C      4.77339000      3.45746272      1.81628973
    H      5.72021406      3.03792770      1.54718987
    H      4.20493091      2.73391485      2.36239580
    H      4.92723136      4.32369185      2.42528811
    C      4.00740935      3.85592590      0.54110318
    N      3.43710194      4.15259985     -0.40833118
    C      3.96339298      1.01706053     -2.13206778
    H      3.11020095      1.65690358     -2.21904140
    H      3.80916948      0.13528617     -2.71823173
    H      4.83272959      1.53194366     -2.48427271
    C      4.16212376      0.62421326     -0.65633844
    N      4.31008787      0.33172061      0.44240914
    C      1.37303133     -1.61715059      1.50635393
    H      0.92938659     -2.55066456      1.78317733
    H      0.81401169     -0.81420283      1.93956406
    H      2.38158193     -1.58217117      1.86202404
    C      1.36455956     -1.47957684     -0.02746538
    N      1.35825194     -1.37714693     -1.16946358
    C     -1.96982036     -3.91719474      0.33235051
    H     -1.65149272     -2.97467037      0.72632450
    H     -1.44841489     -4.70692959      0.83170438
    H     -3.02244291     -4.03119492      0.48691063
    C     -1.66341818     -3.97302248     -1.17582752
    N     -1.43528783     -4.01458877     -2.29873461
    C     -5.48910319      0.57661561     -1.47366745
    H     -4.58029474      1.13585446     -1.55252983
    H     -6.06951234      0.95255310     -0.65715333
    H     -6.04687836      0.67257581     -2.38173000
    C     -5.15897284     -0.90745286     -1.22840284
    N     -4.91317579     -2.01240930     -1.04579219
    C     -1.55707089      0.18143364      3.73711404
    H     -2.54059977      0.56190661      3.55597473
    H     -0.87100717      0.62197542      3.04419370
    H     -1.25954489      0.42309892      4.73610116
    C     -1.55715846     -1.34803393      3.55731154
    N     -1.55722365     -2.48679206      3.42344040
    C     -4.80056014     -1.88275633      2.31683816
    H     -5.65723212     -2.38248670      1.91523778
    H     -4.69302529     -2.13465897      3.35118839
    H     -3.92575165     -2.18916645      1.78230842
    C     -4.98143327     -0.35996246      2.17547435
    N     -5.11610153      0.77382680      2.07022258
    C      3.80975076      0.19903891      4.04455522
    H      4.19314870      1.02400229      4.60788604
    H      3.67693855      0.49451810      3.02477483
    H      4.50008619     -0.61707744      4.09241127
    C      2.45552528     -0.23896416      4.63262549
    N      1.44724285     -0.56507735      5.07047054
    C     -2.42593137      1.25513256     -5.78483559
    H     -1.62035390      1.93142205     -5.58842365
    H     -3.14831184      1.32290685     -4.99840556
    H     -2.88722259      1.51069614     -6.71585480
    C     -1.88175735     -0.18358616     -5.85942177
    N     -1.47659506     -1.25477764     -5.91495457
    C     -0.51849408      4.37297750     -3.42341851
    H     -0.52974573      5.29245907     -2.87631047
    H     -0.64073756      4.57715142     -4.46661966
    H      0.41501447      3.87477944     -3.26448591
    C     -1.66991744      3.47278472     -2.93815855
    N     -2.52720446      2.80255028     -2.57686045
    C     -3.22844350      3.20690589      0.75120561
    H     -4.25178657      3.32766972      1.03945071
    H     -3.08813827      2.23166924      0.33392032
    H     -2.97365632      3.94703191      0.02168792
    C     -2.32423057      3.37148010      1.98688935
    N     -1.65100295      3.49401308      2.90691207
