120
Energy:   -592.78233231
    C      5.70071500     -5.18787654      0.14823180
    H      6.06240839     -4.66829433     -0.71438770
    H      6.17181124     -6.14655321      0.21073350
    H      5.92736165     -4.62112335      1.02704987
    C      4.17591601     -5.37161001      0.03496201
    N      3.04063385     -5.50840793     -0.04937249
    C      0.32500787     -1.24538538     -4.69697832
    H      1.24299510     -0.76227392     -4.95928149
    H     -0.47605321     -0.82236630     -5.26641233
    H      0.39939488     -2.29160095     -4.90863522
    C      0.04965947     -1.04376729     -3.19526816
    N     -0.15534994     -0.89365347     -2.07717669
    C     -0.03454967      5.68950933     -1.22058485
    H     -0.93516062      5.11728788     -1.14081830
    H     -0.02537631      6.21183536     -2.15438914
    H      0.01241143      6.39453980     -0.41707643
    C      1.18086738      4.74660290     -1.14786028
    N      2.08580062      4.04456620     -1.09371352
    C      0.17764668      2.53172564     -3.93450998
    H      1.13171431      3.00719714     -4.02714907
    H      0.03944905      1.84825892     -4.74609716
    H      0.13328100      1.99865961     -3.00781079
    C     -0.93274477      3.59830179     -3.96685424
    N     -1.75948168      4.39241621     -3.99093602
    C      1.82029765     -3.99524275      2.86946610
    H      1.64615570     -4.85026723      2.25018594
    H      1.37910491     -3.13160592      2.41738261
    H      1.38223280     -4.15696702      3.83219324
    C      3.33640822     -3.77487567      3.02582172
    N      4.46522145     -3.61080236      3.14223560
    C     -2.87723290      0.17790866     -0.56288013
    H     -3.65070561      0.30655317      0.16519318
    H     -2.16917638     -0.54141929     -0.20774302
    H     -3.30538718     -0.16631727     -1.48108027
    C     -2.16685910      1.52348166     -0.80037199
    N     -1.63795352      2.52532191     -0.97719548
    C     -3.46676423     -2.78812014     -3.22467607
    H     -2.64850340     -2.11882844     -3.39019956
    H     -4.36123823     -2.36561815     -3.63248413
    H     -3.26434904     -3.72393160     -3.70236227
    C     -3.64840110     -3.01261838     -1.71199349
    N     -3.78363801     -3.17976752     -0.58573255
    C      2.80586862     -0.37836229      3.92591440
    H      2.17937661     -0.96008091      3.28247723
    H      2.20013044      0.14358709      4.63693423
    H      3.48493119     -1.02446455      4.44198124
    C      3.60201788      0.63756683      3.08589393
    N      4.19478719      1.39397224      2.46046051
    C      2.16831525      4.36420733      2.43099981
    H      2.78522369      4.92386401      3.10264596
    H      1.48852239      5.02577970      1.93592128
    H      2.78364946      3.87593740      1.70446325
    C      1.37319909      3.30929221      3.22254538
    N      0.78119897      2.52385995      3.81188703
    C      4.52651659      1.40649645     -1.13534541
    H      4.33755163      0.75992518     -0.30399830
    H      4.32246556      2.41841492     -0.85377256
    H      5.55126234      1.31805743     -1.43025859
    C      3.61729637      1.00795495     -2.31266579
    N      2.94034059      0.71122268     -3.18923432
    C      3.10379028     -2.68532160     -2.09219009
    H      2.54137598     -3.59422233     -2.14208813
    H      4.12593272     -2.88442122     -2.33812352
    H      2.70104930     -1.97809084     -2.78682916
    C      3.02177120     -2.10851197     -0.66665036
    N      2.96070427     -1.67905098      0.39472877
    C      1.11171303      1.19964056      0.38329515
    H      0.66875000      2.15447532      0.57558278
    H      1.04283087      0.97836400     -0.66130574
    H      2.14048042      1.21809157      0.67688724
    C      0.36773016      0.11730757      1.18743741
    N     -0.18619890     -0.68853855      1.78615787
    C     -0.25317594     -3.92745254     -0.27242732
    H     -1.21176046     -4.14333990      0.15113913
    H     -0.00204911     -2.90459474     -0.08375746
    H      0.48417836     -4.56340936      0.17115655
    C     -0.29620478     -4.17358477     -1.79202182
    N     -0.32824170     -4.35684139     -2.92342900
    C     -6.45145472     -0.60852656      0.42632777
    H     -7.49046902     -0.76529580      0.62825071
    H     -6.13848972      0.31607992      0.86456842
    H     -5.88171465     -1.41213044      0.84407908
    C     -6.22648588     -0.55704923     -1.09628153
    N     -6.05898636     -0.51872202     -2.22993337
    C     -1.15785042      0.10536847      5.11035197
    H     -1.11147464      0.48872890      4.11246207
    H     -0.60237163      0.74472969      5.76423241
    H     -2.17805152      0.06718866      5.43071285
    C     -0.55574305     -1.31163832      5.14438829
    N     -0.10744675     -2.36666429      5.16972988
    C     -2.61944708     -3.01420140      2.68972538
    H     -2.61701540     -3.43882825      3.67185893
    H     -1.61266635     -2.91710895      2.34063412
    H     -3.16685023     -3.65141928      2.02700202
    C     -3.28410837     -1.62567683      2.73244402
    N     -3.77897892     -0.59185718      2.76424999
    C      6.35948648     -1.17515816      1.59551070
    H      5.38273269     -1.34194026      1.99928780
    H      6.61564465     -0.14124906      1.69706885
    H      7.07138077     -1.77272331      2.12562531
    C      6.37200990     -1.56312641      0.10523428
    N      6.38133417     -1.85198641     -1.00434425
    C     -4.66352132      2.21273480     -3.74454775
    H     -4.28890058      3.21419578     -3.78498761
    H     -5.02547100      2.00685482     -2.75889824
    H     -5.46203803      2.10195156     -4.44810815
    C     -3.53248903      1.22713617     -4.09234267
    N     -2.69038408      0.49331320     -4.35129180
    C     -3.98708776      5.07965719     -0.95093703
    H     -4.72265627      5.76845942     -1.31064613
    H     -3.32371558      4.81750568     -1.74850397
    H     -3.43002745      5.53429218     -0.15854197
    C     -4.68493068      3.81126230     -0.42578023
    N     -5.20450645      2.86688465     -0.03477713
    C     -2.52916013      2.58398562      2.56000342
    H     -2.59063568      2.58477148      3.62823575
    H     -1.93366347      1.75552002      2.23762543
    H     -3.51225259      2.49900372      2.14623248
    C     -1.88283194      3.89753847      2.08205072
    N     -1.40161123      4.87553827      1.72619321
