120
Energy:   -592.33249165
    C      5.72762310     -4.82775896      1.24494705
    H      5.96565816     -3.89425185      0.77932493
    H      6.44051201     -5.56752360      0.94588725
    H      5.75690306     -4.71358764      2.30843503
    C      4.31685965     -5.27092542      0.81488893
    N      3.26648214     -5.60088300      0.49469111
    C      0.26684726     -1.60757042     -4.61572214
    H      1.19422522     -1.16829578     -4.91888564
    H     -0.53590562     -1.15937806     -5.16308902
    H      0.28916905     -2.65912590     -4.81227214
    C      0.05535327     -1.37140524     -3.10870645
    N     -0.10211362     -1.19556952     -1.98666476
    C      0.28000934      5.59328278     -1.29777250
    H      0.67106502      6.51280989     -0.91509048
    H     -0.46710557      5.21806936     -0.62999012
    H     -0.15516422      5.76388840     -2.26027797
    C      1.41879511      4.56433157     -1.42436780
    N      2.26667288      3.79823062     -1.51862376
    C      0.28669424      2.19461330     -3.95676215
    H      0.14782000      1.51836973     -4.77426368
    H      0.22758334      1.65582773     -3.03420315
    H      1.24712484      2.65932181     -4.03749725
    C     -0.81065923      3.27451604     -3.99176823
    N     -1.62768877      4.07855272     -4.01783184
    C      1.89996279     -3.76276648      3.47704787
    H      2.17733325     -4.77922570      3.29056341
    H      0.84681461     -3.70790493      3.65806783
    H      2.42849517     -3.40028494      4.33387909
    C      2.25581187     -2.90048556      2.25171401
    N      2.52075769     -2.25847823      1.33939726
    C     -2.66301308      0.29128250     -0.58114114
    H     -3.49907787      0.46096045      0.06469571
    H     -2.05330794     -0.48990506     -0.17752656
    H     -3.01360458      0.00521265     -1.55075381
    C     -1.83263325      1.58312824     -0.69604948
    N     -1.21437772      2.54496611     -0.78160397
    C     -3.37554690     -2.97021926     -3.33868825
    H     -2.66398334     -2.23583517     -3.65373982
    H     -4.34631377     -2.70536058     -3.70250229
    H     -3.09723577     -3.92690742     -3.72880333
    C     -3.40304792     -3.03146621     -1.80015242
    N     -3.42352368     -3.07706734     -0.65464256
    C      2.52079618      0.08881738      4.56178754
    H      1.81667156     -0.54268526      4.06147452
    H      2.01202327      0.68027392      5.29406371
    H      3.26202318     -0.51450242      5.04291834
    C      3.19965035      1.01478498      3.53546351
    N      3.70508814      1.70420995      2.77131862
    C      1.08834806      3.96163354      2.03630232
    H      2.13865929      3.81473562      1.89428996
    H      0.86639523      5.00773030      2.00000373
    H      0.54961323      3.45566495      1.26257131
    C      0.67150588      3.39567491      3.40653348
    N      0.36114792      2.97429299      4.42673286
    C      4.86170215      1.44850225     -1.89253546
    H      4.36207579      1.99991442     -1.12362825
    H      5.44276886      2.11816829     -2.49154128
    H      5.50506894      0.71857400     -1.44735797
    C      3.81851983      0.74161222     -2.77779086
    N      3.04182317      0.21530046     -3.43690374
    C      3.00659543     -3.03489627     -2.02141335
    H      2.82968321     -2.76078508     -3.04046452
    H      2.25124332     -2.60202911     -1.39934558
    H      2.97769457     -4.10046404     -1.92852007
    C      4.38995727     -2.51879464     -1.58375009
    N      5.41993304     -2.13453352     -1.25788991
    C      1.70489944      0.73220720      0.01690398
    H      2.46010822      1.40416901      0.36765632
    H      1.18403323      1.17836730     -0.80439903
    H      2.16106521     -0.18100269     -0.30381335
    C      0.71108187      0.43728651      1.15574041
    N     -0.02886048      0.21770465      2.00365590
    C     -0.10131577     -4.38419359     -0.29978397
    H     -1.03845745     -4.61248945      0.16340783
    H      0.16288747     -3.36901639     -0.08880769
    H      0.65472058     -5.03670699      0.08431809
    C     -0.22091485     -4.57758331     -1.82290461
    N     -0.30996180     -4.72157075     -2.95693716
    C     -6.23146628     -0.60444299      0.26249622
    H     -7.26345092     -0.78624063      0.47896214
    H     -5.95031997      0.35443630      0.64512704
    H     -5.63174880     -1.36183635      0.72248897
    C     -6.01396482     -0.63277944     -1.26180368
    N     -5.85202510     -0.65387722     -2.39671423
    C     -1.58032533      0.42478707      5.32120103
    H     -1.46330801      0.86308038      4.35212616
    H     -1.18507200      1.08750050      6.06247346
    H     -2.61921297      0.25450124      5.51254966
    C     -0.82238918     -0.91475766      5.37366737
    N     -0.25807127     -1.91210959      5.41273095
    C     -2.01693277     -2.60137607      2.35194063
    H     -1.65097634     -2.93508977      3.30041901
    H     -1.19623467     -2.27592160      1.74743000
    H     -2.52369678     -3.40632309      1.86189000
    C     -2.99546861     -1.43096490      2.56219117
    N     -3.72403302     -0.55954058      2.71873224
    C      5.82734120     -0.60440609      1.64574982
    H      6.14895382      0.33698684      2.03976106
    H      4.96293335     -0.45777556      1.03240028
    H      6.61283176     -1.03241598      1.05862869
    C      5.47804074     -1.55433393      2.80645059
    N      5.21797067     -2.26159839      3.67064507
    C     -4.67973512      2.06435928     -4.12597862
    H     -4.32076872      3.07157661     -4.16543200
    H     -5.18999570      1.90361147     -3.19932153
    H     -5.35437551      1.89405706     -4.93884798
    C     -3.49100463      1.09118211     -4.23296473
    N     -2.60594075      0.36660748     -4.31262075
    C     -3.76906960      4.98797317     -1.44863573
    H     -3.91308537      5.80632043     -0.77449375
    H     -4.16414822      5.24370852     -2.40957871
    H     -2.72350943      4.77850650     -1.53710451
    C     -4.49800305      3.74357035     -0.90852682
    N     -5.04072713      2.81705588     -0.50639118
    C     -2.92392078      2.74053828      2.52208286
    H     -3.06684338      2.81427350      3.57992804
    H     -2.17234002      2.00794290      2.31392557
    H     -3.84306645      2.45055425      2.05734681
    C     -2.47705008      4.10616705      1.96803897
    N     -2.14433453      5.12293975      1.55552811
