120
Energy:   -592.25986234
    C      4.69859142     -2.92371079      0.53165630
    H      5.02441398     -3.07799268     -0.47578449
    H      3.72523086     -3.34890903      0.66078715
    H      5.38518854     -3.39358671      1.20448623
    C      4.64237537     -1.41341986      0.82739443
    N      4.60051997     -0.28893961      1.04758491
    C      1.30591521     -1.05451747     -4.77189632
    H      0.37336969     -1.57903306     -4.75996161
    H      2.00395145     -1.55342791     -4.13257411
    H      1.68976044     -1.03208947     -5.77042469
    C      1.09098270      0.38617396     -4.27208413
    N      0.93095568      1.45883421     -3.89995124
    C      1.25307766      5.71453444      1.69135536
    H      0.82205772      6.33127771      2.45211139
    H      2.16348209      6.15808733      1.34592275
    H      1.45892556      4.74432532      2.09287747
    C      0.26685348      5.58487621      0.51570634
    N     -0.46743525      5.48833976     -0.35961779
    C     -1.67806762     -0.70259003     -2.29859356
    H     -1.00637128     -1.52935396     -2.39951735
    H     -1.28617888      0.14179727     -2.82616574
    H     -2.63186347     -0.96620488     -2.70563139
    C     -1.83608234     -0.34854556     -0.80819634
    N     -1.95373148     -0.08494337      0.30147213
    C      2.56752974     -4.24535131     -2.58947752
    H      2.83240762     -3.51132183     -1.85739788
    H      3.15269645     -4.09557238     -3.47267925
    H      2.75596472     -5.22332533     -2.19837885
    C      1.07289281     -4.10982300     -2.93486502
    N     -0.03993232     -4.00891601     -3.19202172
    C      0.54470392      2.21961291     -0.52279367
    H     -0.49552821      2.47024169     -0.52437600
    H      0.69728594      1.32660171     -1.09213435
    H      1.10516527      3.02034595     -0.95823456
    C      1.01561202      1.99170597      0.92562063
    N      1.36622450      1.82201890      2.00403092
    C     -3.46879002     -3.47470784     -4.17161284
    H     -4.10009065     -2.70202089     -4.55802528
    H     -3.72437029     -4.40691076     -4.63049793
    H     -2.44682022     -3.24041307     -4.38511407
    C     -3.66321741     -3.58233359     -2.64773139
    N     -3.80797745     -3.66246586     -1.51313238
    C      1.04908586     -4.14383061      4.32500846
    H      0.40287559     -3.32188753      4.55243323
    H      1.12554272     -4.78425623      5.17876983
    H      0.64811061     -4.69519971      3.50032061
    C      2.44621196     -3.61151981      3.95584203
    N      3.48643585     -3.21519022      3.68098084
    C      0.69935592      3.06504527      5.25470141
    H      0.00048666      3.86492125      5.38385387
    H      0.82272487      2.54596162      6.18218800
    H      0.33239602      2.38712617      4.51263321
    C      2.05579652      3.63661196      4.80195376
    N      3.06572819      4.06216934      4.46486255
    C      4.84872376      3.02490238      1.81369817
    H      4.16427603      2.46371970      2.41495143
    H      5.27147010      3.81534859      2.39797501
    H      5.62961510      2.38087485      1.46680288
    C      4.10147702      3.62185356      0.60668881
    N      3.54511785      4.06631085     -0.29198452
    C      3.94652617      1.05202187     -1.98495875
    H      4.84843496      1.52010858     -1.64976397
    H      3.25559591      0.98491451     -1.17070383
    H      3.51434597      1.63336582     -2.77246024
    C      4.26489176     -0.36179185     -2.50589455
    N      4.50192942     -1.41444043     -2.89375493
    C      1.00882146     -1.50085926      1.60096833
    H      0.73096191     -2.50354872      1.85058425
    H      0.22108017     -0.83254996      1.87976111
    H      1.90289551     -1.23721802      2.12634816
    C      1.25569226     -1.39904795      0.08429787
    N      1.43949879     -1.32324479     -1.04493222
    C     -1.05682146     -4.97958437     -0.08844910
    H     -1.37974950     -3.98457973     -0.31335668
    H     -1.66352880     -5.38290256      0.69522158
    H     -1.14969577     -5.59069578     -0.96184265
    C      0.41483075     -4.95162691      0.36438436
    N      1.51054272     -4.93081131      0.70153946
    C     -5.37704132      0.81644714     -0.67267061
    H     -5.13953095      1.84064841     -0.87141858
    H     -4.66789622      0.41380965      0.02007420
    H     -6.35985705      0.75290647     -0.25441840
    C     -5.32499747      0.01330956     -1.98562966
    N     -5.28624847     -0.58466288     -2.96318735
    C     -1.83100342      0.44513727      3.73738377
    H     -1.73935407      0.93138083      4.68610279
    H     -1.13865454      0.87844579      3.04615599
    H     -1.61824839     -0.59754339      3.84896977
    C     -3.26558557      0.62235069      3.20618751
    N     -4.33369718      0.75429414      2.81068775
    C     -4.24903921     -2.49557855      1.56570961
    H     -4.84805151     -2.01210834      2.30890609
    H     -4.73943216     -3.38820203      1.23762855
    H     -4.11288636     -1.83695956      0.73349419
    C     -2.87706590     -2.85462336      2.16602291
    N     -1.85556940     -3.12194854      2.61298345
    C      3.49022777      0.22334091      4.36248580
    H      3.83195682      1.04995439      4.94970942
    H      3.43519272      0.51475386      3.33440568
    H      4.17320518     -0.59386798      4.46549344
    C      2.09462329     -0.20961224      4.84873646
    N      1.05553232     -0.53196554      5.21077218
    C     -4.05457337      1.20880690     -5.53799477
    H     -3.82067159      2.04350140     -6.16527080
    H     -4.18457362      1.54510475     -4.53057094
    H     -4.95785318      0.74802677     -5.87955933
    C     -2.90406417      0.18663036     -5.59352590
    N     -2.04745777     -0.57442653     -5.63487135
    C     -0.91417174      4.22361727     -3.45347848
    H     -1.20245234      5.23675536     -3.26547402
    H     -0.82388330      4.06836195     -4.50829736
    H      0.02615436      4.02705200     -2.98225878
    C     -1.98257961      3.27181273     -2.88411677
    N     -2.77805783      2.56315099     -2.46020110
    C     -3.13157512      3.43444131      0.84231369
    H     -4.14625548      3.41411512      1.18129863
    H     -2.88352642      2.49111623      0.40241742
    H     -3.01430946      4.20947741      0.11398209
    C     -2.19697182      3.70590667      2.03580572
    N     -1.50111719      3.90802497      2.92441480
