120
Energy:   -592.22925138
    C      4.90793148     -3.00287491      1.10769915
    H      4.65479331     -2.04980004      1.52299365
    H      5.92517316     -3.23601568      1.34384283
    H      4.26535563     -3.75314648      1.51890219
    C      4.73302219     -2.95921157     -0.42171259
    N      4.60279427     -2.92670223     -1.56042914
    C      1.65511457     -2.20217974     -4.30555070
    H      2.48639005     -2.37894964     -3.65544789
    H      1.89484511     -2.54183579     -5.29148280
    H      0.79983306     -2.73344955     -3.94341120
    C      1.34463197     -0.69427834     -4.34341777
    N      1.11346357      0.42842280     -4.37161153
    C      1.00826678      5.58547142      1.77780678
    H      1.86864903      5.52162592      2.41070986
    H      0.82734616      6.60907306      1.52402243
    H      1.17976293      5.02154247      0.88479373
    C     -0.21647850      5.01577512      2.51743177
    N     -1.12835704      4.59161033      3.06811619
    C     -1.63653408     -0.90983440     -2.46407538
    H     -1.00080118     -1.76911462     -2.51287447
    H     -1.19329535     -0.10650861     -3.01462618
    H     -2.59064384     -1.14763224     -2.88600647
    C     -1.81624218     -0.48704997     -0.99419160
    N     -1.95004303     -0.17226775      0.10020369
    C      2.04825343     -5.19455337     -1.44074622
    H      3.02808499     -5.59512874     -1.59685417
    H      1.95851005     -4.26077656     -1.95543650
    H      1.31835706     -5.88066611     -1.81677771
    C      1.81769659     -4.97447503      0.06590870
    N      1.64603655     -4.81061670      1.18768178
    C      0.75408966      1.97161151     -1.09855274
    H     -0.29663197      1.91807604     -1.29353529
    H      1.23541906      1.10279405     -1.49651923
    H      1.15865335      2.84718806     -1.56179460
    C      0.99131996      2.03893465      0.42157534
    N      1.16794870      2.08905978      1.55337980
    C     -4.03311818     -3.80152159     -3.69549596
    H     -2.98298156     -3.99430742     -3.76582998
    H     -4.31681468     -3.09351103     -4.44592012
    H     -4.57373600     -4.71310565     -3.84262169
    C     -4.35813408     -3.23105946     -2.30246415
    N     -4.60012318     -2.80632446     -1.26528865
    C      0.96797135     -3.57499397      4.70954283
    H      0.38707029     -2.70571805      4.93716864
    H      0.96503550     -4.23625600      5.55074613
    H      0.54622291     -4.07396346      3.86216051
    C      2.41526510     -3.15623467      4.39082441
    N      3.49284109     -2.84444934      4.15352406
    C      0.28328486      3.32153517      6.04671404
    H     -0.55663992      3.31717979      5.38383579
    H      0.11301849      4.02637593      6.83354818
    H      0.41299907      2.34504473      6.46449355
    C      1.55051574      3.71877687      5.26701863
    N      2.49402674      4.01454137      4.68649996
    C      4.38458167      3.69268287      1.65559028
    H      3.52907414      3.46292766      2.25577323
    H      4.80929857      4.61966021      1.97997843
    H      5.11059714      2.91314350      1.75618350
    C      3.95967786      3.81115838      0.18011737
    N      3.64331766      3.89936878     -0.91843928
    C      4.14945697      0.53073128     -2.24962435
    H      3.73213134     -0.37637978     -2.63418777
    H      5.13905871      0.65977709     -2.63554488
    H      3.53981449      1.35813469     -2.54734695
    C      4.20323669      0.45972108     -0.71220271
    N      4.24327814      0.40685076      0.43247758
    C      1.25956953     -1.40137595      1.61333816
    H      0.79587351     -2.28113619      2.00819018
    H      0.68015568     -0.54236484      1.88031868
    H      2.24575284     -1.30602951      2.01738101
    C      1.34150134     -1.50874051      0.07927166
    N      1.40250330     -1.58867830     -1.06291058
    C     -1.78155511     -3.78581697      0.95141158
    H     -1.63077186     -2.74275253      1.13629307
    H     -1.14530446     -4.35759925      1.59417844
    H     -2.80327202     -4.03822290      1.14450455
    C     -1.44378641     -4.10083567     -0.51769546
    N     -1.19230225     -4.33538141     -1.61151244
    C     -5.28039144      0.76101931     -1.77821705
    H     -5.64819351      0.02796394     -1.09101137
    H     -5.98041918      1.56721885     -1.84823523
    H     -4.33960749      1.13464846     -1.43148097
    C     -5.09754004      0.11799856     -3.16554890
    N     -4.96139886     -0.36075962     -4.19848053
    C     -1.63674047      1.16334251      3.33073360
    H     -2.37473093      1.60762122      3.96546716
    H     -1.82421581      1.44369719      2.31527639
    H     -0.66483522      1.50387664      3.62113985
    C     -1.70357867     -0.36970522      3.46072337
    N     -1.75334276     -1.51112893      3.55750666
    C     -4.76770186     -1.48637944      1.85300581
    H     -4.62065619     -1.79808751      2.86597957
    H     -3.92189139     -1.77506259      1.26464726
    H     -5.64924854     -1.94966041      1.46166799
    C     -4.92790454      0.04451612      1.80511115
    N     -5.04718272      1.18433745      1.76945140
    C      3.55205907      0.73146323      3.88069945
    H      4.19591415     -0.12284713      3.85823556
    H      4.02980738      1.52411658      4.41768763
    H      3.34814612      1.05081161      2.88003207
    C      2.23126847      0.36057961      4.58038335
    N      1.24787984      0.08443990      5.10132981
    C     -2.15033749      0.34139943     -6.23033727
    H     -2.87392067      0.71378612     -5.53560299
    H     -2.54498218      0.40179165     -7.22306454
    H     -1.25805768      0.92830325     -6.16491750
    C     -1.82514059     -1.12618408     -5.89560507
    N     -1.58301672     -2.21886670     -5.64638174
    C     -0.41021828      3.75568708     -4.19285343
    H     -0.10197463      4.48249363     -3.47060813
    H     -0.72439288      4.25237843     -5.08699610
    H      0.40907803      3.10451829     -4.41563549
    C     -1.58085850      2.93195952     -3.62480908
    N     -2.45245335      2.31865691     -3.20187423
    C     -3.09980372      3.44218133      0.30485342
    H     -3.16561207      3.71181404      1.33823023
    H     -2.90723675      2.39295198      0.22157783
    H     -4.02256742      3.67535605     -0.18405945
    C     -1.95414939      4.22862183     -0.35891423
    N     -1.10115766      4.81416254     -0.85311942
