120
Energy:   -597.72587616
    C      4.96060177     -2.99352661      0.80600957
    H      5.98305620     -3.26037972      0.97416587
    H      4.32293524     -3.75074773      1.21208427
    H      4.75285402     -2.05865749      1.28325133
    C      4.70579586     -2.86513770     -0.70732788
    N      4.51608127     -2.76954631     -1.83407640
    C      1.33566453     -2.00251552     -4.33576809
    H      2.23057890     -2.21902768     -3.79065256
    H      1.45690123     -2.30484735     -5.35498162
    H      0.51559388     -2.53481513     -3.90098039
    C      1.05345480     -0.48965179     -4.27919054
    N      0.84333682      0.63674402     -4.23706598
    C      1.09798686      5.69911584      1.59039443
    H      0.46615806      5.96079736      2.41332537
    H      1.78778151      6.49535005      1.40306183
    H      1.63901616      4.80651451      1.82587109
    C      0.23588005      5.46118624      0.33669536
    N     -0.40599765      5.28403683     -0.59674059
    C     -1.80339461     -0.68573377     -2.23596884
    H     -1.21143848     -1.55570830     -2.42995966
    H     -1.35983728      0.16169339     -2.71557618
    H     -2.79191328     -0.83460186     -2.61750286
    C     -1.87103208     -0.43902319     -0.71736452
    N     -1.92139125     -0.25533595      0.41330542
    C      2.04814692     -5.12690229     -1.72010768
    H      1.91233495     -4.17227009     -2.18393163
    H      1.32425451     -5.81563885     -2.10288806
    H      3.03231004     -5.48952733     -1.93182710
    C      1.86901904     -4.98768400     -0.19690990
    N      1.73565019     -4.88402965      0.93718008
    C      0.55696658      2.02815522     -0.72776781
    H      0.80086242      1.09772547     -1.19650600
    H      1.04404812      2.82730214     -1.24643424
    H     -0.50229239      2.17620148     -0.75861949
    C      1.02944752      2.00402836      0.73776269
    N      1.38123105      1.98606481      1.82891677
    C     -4.24327575     -3.56975381     -3.71851201
    H     -4.55103723     -2.81408723     -4.41071940
    H     -4.83049221     -4.45152309     -3.86870808
    H     -3.20991167     -3.79827861     -3.87610073
    C     -4.44244867     -3.05935442     -2.27926825
    N     -4.59074197     -2.67933887     -1.20768585
    C      1.29948382     -3.89158258      4.59256156
    H      0.71063394     -3.07856556      4.96291182
    H      1.38114148     -4.64564483      5.34729412
    H      0.83041321     -4.30524034      3.72436854
    C      2.70457502     -3.38107452      4.22283160
    N      3.75072929     -3.00097806      3.94755084
    C      0.69661986      3.27809350      5.06653536
    H      0.79450265      2.75745837      5.99619024
    H      0.34117753      2.60365423      4.31574144
    H      0.00155493      4.08359846      5.18031408
    C      2.06768942      3.83878329      4.64535223
    N      3.08851303      4.25624233      4.33176225
    C      4.68725872      3.60583107      1.46197883
    H      4.10314378      2.94417824      2.06689654
    H      4.83273974      4.52959473      1.98197409
    H      5.63732101      3.15771261      1.25833558
    C      3.95118287      3.87354351      0.13603675
    N      3.40314094      4.07286759     -0.85118740
    C      3.85733789      0.72177110     -2.32471812
    H      3.57164129     -0.21411653     -2.75760606
    H      4.77377671      1.05390063     -2.76599916
    H      3.09133852      1.44677928     -2.50501567
    C      4.05200742      0.54726133     -0.80707188
    N      4.19694773      0.41733087      0.32288473
    C      1.33224005     -1.51164367      1.62387060
    H      2.33979820     -1.40518639      1.96795434
    H      0.91953145     -2.42230855      2.00500074
    H      0.74836327     -0.68379725      1.96833730
    C      1.31644745     -1.54566596      0.08432746
    N      1.30468914     -1.57099710     -1.06193239
    C     -1.70984160     -3.94714331      0.68000694
    H     -1.10613869     -4.62831995      1.24253816
    H     -2.74393172     -4.15212438      0.86314479
    H     -1.48700658     -2.94376248      0.97744696
    C     -1.41112106     -4.11585727     -0.82129304
    N     -1.18871003     -4.24147247     -1.93907912
    C     -5.35755423      1.01636187     -1.54082031
    H     -6.36125399      0.96290285     -1.17390193
    H     -5.05634613      2.04091033     -1.60770244
    H     -4.70493868      0.49569838     -0.87156583
    C     -5.28576979      0.36808404     -2.93587689
    N     -5.23232301     -0.11458826     -3.97455993
    C     -1.63313355      0.47449191      3.74361995
    H     -1.32348022      0.78286761      4.72030794
    H     -2.62005790      0.83992762      3.55039425
    H     -0.95739310      0.86932314      3.01397467
    C     -1.63093069     -1.06355739      3.66616356
    N     -1.62929055     -2.20870501      3.60849375
    C     -4.74725720     -1.75778829      2.01272175
    H     -4.70619993     -2.09159084      3.02849256
    H     -3.83249691     -2.00869326      1.51758602
    H     -5.56521478     -2.23394243      1.51360080
    C     -4.94567288     -0.23093779      1.98175745
    N     -5.09340238      0.90587180      1.95870312
    C      3.77942208      0.54413951      3.96498268
    H      4.48296204     -0.25209491      4.09124613
    H      4.14705344      1.42496307      4.44861077
    H      3.64552271      0.73966468      2.92155565
    C      2.43044874      0.14098356      4.58895079
    N      1.42607677     -0.15918436      5.05352341
    C     -2.47951760      0.80318307     -5.92593922
    H     -3.11361915      1.15544013     -5.13934507
    H     -2.97732895      0.92195968     -6.86560675
    H     -1.57003656      1.36685291     -5.93037286
    C     -2.15938140     -0.68601913     -5.69924646
    N     -1.92102545     -1.79479786     -5.53046340
    C     -0.42411081      3.97306480     -3.84700596
    H      0.20601341      4.33786900     -3.06293865
    H     -0.79242278      4.79736398     -4.42126743
    H      0.13763979      3.31936749     -4.48105264
    C     -1.60942777      3.20247891     -3.23641519
    N     -2.49195013      2.62874269     -2.78180261
    C     -3.14070663      3.26635047      0.56346487
    H     -2.95996776      2.26139237      0.24363232
    H     -2.88664127      3.94291547     -0.22559133
    H     -4.17505058      3.38088904      0.81228729
    C     -2.27781607      3.57414166      1.80131965
    N     -1.63535483      3.80330619      2.72295880
