120
Energy:   -591.97962493
    C      4.96023592     -3.03267720      0.13571680
    H      5.89862419     -3.28509432      0.58361548
    H      4.96427101     -3.32974877     -0.89220892
    H      4.17132627     -3.54010705      0.65053290
    C      4.73929052     -1.51150189      0.22957200
    N      4.57478664     -0.37891772      0.29945146
    C      0.64263024     -2.36310145     -4.27910637
    H      0.93037350     -1.35762058     -4.05302628
    H      1.39448291     -2.82106873     -4.88728613
    H      0.53397110     -2.91607405     -3.36953856
    C     -0.69722520     -2.35524456     -5.03826752
    N     -1.69480848     -2.34939475     -5.60349750
    C      1.65538371      5.60274878      1.41639195
    H      2.28193310      6.43617700      1.17611411
    H      2.23446097      4.70325008      1.39469643
    H      1.24213238      5.73739692      2.39414055
    C      0.51495353      5.50404805      0.38620887
    N     -0.33414857      5.43056087     -0.38080926
    C     -2.03566247     -0.57488467     -1.99384826
    H     -2.41738705     -1.56130978     -2.15556416
    H     -1.05475809     -0.49863171     -2.41445635
    H     -2.68103925      0.13854045     -2.46226313
    C     -1.96917324     -0.29171554     -0.48156706
    N     -1.91966899     -0.08088324      0.64439503
    C      2.08129610     -4.88412958     -1.73492908
    H      2.41940288     -3.91162383     -2.02616189
    H      1.22417682     -5.15269567     -2.31640813
    H      2.86179916     -5.59725968     -1.89973058
    C      1.70494449     -4.87090221     -0.24168279
    N      1.42473362     -4.86105383      0.87010696
    C      0.43698758      2.14175821     -0.85603293
    H     -0.60371544      2.34165335     -0.70811631
    H      0.55039118      1.23559940     -1.41363039
    H      0.88236709      2.95098550     -1.39611384
    C      1.13059326      1.99356731      0.51091646
    N      1.64701421      1.88323244      1.52867241
    C     -4.39355080     -3.49677041     -3.72078479
    H     -4.96816465     -4.06704121     -4.42043493
    H     -4.67227141     -3.76926063     -2.72430950
    H     -3.35264552     -3.69665682     -3.86727953
    C     -4.66351306     -1.99613485     -3.93714858
    N     -4.86451224     -0.87884346     -4.09824126
    C      1.55189090     -3.98695896      4.43486265
    H      1.08538036     -3.13549522      4.88461548
    H      1.70577333     -4.74264546      5.17658848
    H      0.92196433     -4.37092384      3.65983841
    C      2.90846745     -3.57218343      3.83547855
    N      3.91850036     -3.26336419      3.38920983
    C      1.56106062      3.22650677      4.82229089
    H      1.04913682      2.55012835      4.17010499
    H      0.95997782      4.09845056      4.97497552
    H      1.74088734      2.74817454      5.76237585
    C      2.90414442      3.63348038      4.18817862
    N      3.90413136      3.93649074      3.71605321
    C      5.08481105      2.94322189      0.67451718
    H      4.50466108      2.43530308      1.41636937
    H      5.57385898      3.78486649      1.11877566
    H      5.81834471      2.27411482      0.27561470
    C      4.16018813      3.42592111     -0.45847616
    N      3.47176434      3.78531262     -1.30204121
    C      3.27683963      0.57878791     -2.84935058
    H      2.36897222      0.75835232     -3.38641070
    H      4.04405257      1.22652322     -3.21911046
    H      3.11934851      0.77032863     -1.80848182
    C      3.70594719     -0.88758332     -3.04228096
    N      4.02543727     -1.97936335     -3.18592639
    C      1.27255580     -1.49205826      1.59609467
    H      0.80181413     -2.37817374      1.96771520
    H      0.76924494     -0.63125171      1.98415310
    H      2.29680824     -1.47587026      1.90519655
    C      1.20030532     -1.47893092      0.05784646
    N      1.14651155     -1.46915702     -1.08744925
    C     -1.96779960     -3.79183116      0.79129531
    H     -1.46426779     -4.54945329      1.35464655
    H     -3.02395636     -3.88112373      0.93778361
    H     -1.64237453     -2.82710828      1.12039620
    C     -1.64080102     -3.96138717     -0.70400489
    N     -1.39733571     -4.08762932     -1.81732385
    C     -5.56728861      0.66100584     -0.95186885
    H     -4.92548834      1.26130977     -0.34143639
    H     -6.58824079      0.87046408     -0.70962313
    H     -5.39192582      0.88637593     -1.98306005
    C     -5.27398409     -0.82881348     -0.69494305
    N     -5.05560555     -1.93805168     -0.50365012
    C     -1.22648000      0.57844415      3.98694630
    H     -0.73947813      0.85120735      4.89981518
    H     -2.20926173      1.00109909      3.96689708
    H     -0.66188595      0.94895773      3.15697501
    C     -1.32552118     -0.95570342      3.89649145
    N     -1.39926183     -2.09794602      3.82914371
    C     -4.63552393     -1.58193830      2.82903055
    H     -4.46088605     -1.82727510      3.85577865
    H     -3.81923074     -1.93501017      2.23413160
    H     -5.54252743     -2.04517457      2.50092098
    C     -4.75631710     -0.05396048      2.67972286
    N     -4.84625311      1.08368846      2.56855650
    C      4.16709338      0.28352428      3.67293257
    H      4.72308386      1.01023078      4.22761486
    H      3.92018749      0.68157019      2.71090553
    H      4.75708938     -0.60092019      3.55226034
    C      2.87308714     -0.06234012      4.43288366
    N      1.90964067     -0.31985188      4.99870179
    C     -2.58257027      1.09362976     -5.65672523
    H     -3.35248512      1.37659213     -4.96965639
    H     -2.75914704      0.09531283     -5.99889922
    H     -2.58611454      1.76272464     -6.49170940
    C     -1.21522632      1.16020922     -4.95136170
    N     -0.19717660      1.20978066     -4.42618649
    C     -1.33573845      4.55828403     -3.42194194
    H     -1.42819963      5.50843092     -2.93864909
    H     -1.58707647      4.65872313     -4.45714254
    H     -0.32846114      4.20877312     -3.33175518
    C     -2.29065262      3.54925817     -2.75740771
    N     -3.00162963      2.79799256     -2.26263177
    C     -2.99791633      3.46528498      1.07735208
    H     -3.96361382      3.58532298      1.52223344
    H     -2.90698524      2.47425427      0.68430151
    H     -2.87918871      4.17525079      0.28567576
    C     -1.90978373      3.69704378      2.14217850
    N     -1.09961954      3.86959874      2.93499017
