120
Energy:   -591.85964428
    C      4.76687802     -3.22018499      0.91912940
    H      4.94065360     -3.42323041     -0.11695688
    H      3.85495073     -3.68813708      1.22622638
    H      5.57883584     -3.60621322      1.49930680
    C      4.66065222     -1.69885539      1.13330768
    N      4.58156228     -0.56615636      1.29277315
    C      1.57280291     -1.72193438     -4.36777122
    H      2.60572130     -1.96259037     -4.22612208
    H      1.27052845     -2.01288195     -5.35208761
    H      0.98239916     -2.24437776     -3.64432431
    C      1.37096151     -0.20489205     -4.19618273
    N      1.22068142      0.92461492     -4.06842729
    C      1.38400551      5.54392833      1.80116280
    H      0.97084380      6.20636809      2.53285342
    H      2.35614857      5.88859101      1.51647948
    H      1.46126164      4.55986353      2.21413623
    C      0.46829750      5.51077129      0.56343122
    N     -0.21348873      5.48608437     -0.35811620
    C     -1.64924539     -0.34002062     -2.41591239
    H     -1.05710066     -1.20886201     -2.61435494
    H     -1.16629274      0.52210068     -2.82628135
    H     -2.61384028     -0.45576657     -2.86430804
    C     -1.80828666     -0.16376078     -0.89432166
    N     -1.92670011     -0.03252732      0.23857180
    C      2.24815188     -4.65264830     -1.85287267
    H      2.68190852     -3.68128096     -1.96776767
    H      1.45880646     -4.77721989     -2.56443068
    H      2.99695372     -5.39925654     -2.01649120
    C      1.68221802     -4.79684365     -0.42790721
    N      1.26085453     -4.90420364      0.63304434
    C      0.71659794      2.19757244     -0.57599086
    H      0.87222966      1.32932551     -1.18165266
    H      1.29064827      3.01201760     -0.96591958
    H     -0.32150342      2.45675861     -0.58418843
    C      1.16049198      1.90197194      0.86871617
    N      1.49099126      1.68188394      1.94436623
    C     -3.76865850     -3.27077833     -4.43946384
    H     -4.26307464     -3.95029564     -5.10181502
    H     -3.94120853     -3.57057243     -3.42691800
    H     -2.71757886     -3.27880872     -4.63962929
    C     -4.32149572     -1.84974170     -4.65539415
    N     -4.73310816     -0.79171534     -4.81616408
    C      0.62925994     -4.29016127      4.30248436
    H      0.07292538     -3.47717886      4.72015844
    H      0.60910435     -5.12015527      4.97746791
    H      0.19278323     -4.57877364      3.36916230
    C      2.08717761     -3.85029043      4.07315984
    N      3.17266357     -3.52278660      3.90241730
    C      0.62378558      2.95625470      5.10962982
    H     -0.01270272      3.81627374      5.12188024
    H      0.58123975      2.46747158      6.06051363
    H      0.29657289      2.28120644      4.34664830
    C      2.07203139      3.39351811      4.82155904
    N      3.15031623      3.71908060      4.60707725
    C      4.96829774      2.78732612      1.91652912
    H      4.25277617      2.22209255      2.47638631
    H      5.38221449      3.55388326      2.53778765
    H      5.75066643      2.13932198      1.58053959
    C      4.27635591      3.43021337      0.70017699
    N      3.76117376      3.90887215     -0.20545245
    C      4.09811950      0.77981802     -1.80927770
    H      5.00773885      1.30177547     -1.59702019
    H      3.45817107      0.81548130     -0.95248529
    H      3.60745300      1.24173238     -2.64040981
    C      4.41618852     -0.68755298     -2.15170208
    N      4.65300535     -1.78007738     -2.40665260
    C      0.95526911     -1.62687982      1.64649353
    H      0.37502624     -0.80186807      2.00366858
    H      1.89314743     -1.65254465      2.16091035
    H      0.42553578     -2.53926805      1.82490150
    C      1.20296185     -1.46418452      0.13527596
    N      1.38738035     -1.34305048     -0.98989422
    C     -2.17007853     -3.72839004      0.25637651
    H     -3.21383297     -3.96221754      0.22806484
    H     -2.03590419     -2.74300574      0.65123613
    H     -1.66313868     -4.43466499      0.88014472
    C     -1.59057651     -3.79356218     -1.16894100
    N     -1.15911092     -3.84208580     -2.23015467
    C     -5.40678564      0.76395038     -1.77493030
    H     -5.92650340      0.83823313     -2.70727986
    H     -4.48973767      1.31216252     -1.83311585
    H     -6.01564169      1.16919567     -0.99392476
    C     -5.10234601     -0.71522986     -1.47336382
    N     -4.87567687     -1.81654678     -1.24883386
    C     -1.90208075      0.39348313      3.67124963
    H     -1.62138466      0.62009493      4.67860109
    H     -2.84338404      0.85233415      3.45147029
    H     -1.15735639      0.76828254      3.00057078
    C     -2.02314680     -1.13250460      3.50301039
    N     -2.11328598     -2.26867183      3.37774862
    C     -5.23003920     -1.66934706      2.10587130
    H     -5.18313386     -1.89578681      3.15058423
    H     -4.39427954     -2.11353489      1.60677007
    H     -6.13843115     -2.05966378      1.69675516
    C     -5.19301158     -0.14237765      1.90941937
    N     -5.16544283      0.99452049      1.76315199
    C      3.41088189     -0.01668277      4.48709284
    H      3.81479804      0.68965392      5.18196004
    H      3.39911397      0.41348822      3.50744315
    H      4.01679013     -0.89858392      4.48212625
    C      1.97442412     -0.38312649      4.90411569
    N      0.90491601     -0.65596050      5.21460815
    C     -2.09724855      1.29587436     -5.94827503
    H     -1.26135524      1.91956366     -5.70912196
    H     -2.84304986      1.39162622     -5.18701878
    H     -2.50803909      1.59553744     -6.88973787
    C     -1.63568159     -0.17087657     -6.03311408
    N     -1.29202400     -1.26293930     -6.09628060
    C     -0.07153779      4.27588286     -3.60522767
    H      0.03252765      5.18049272     -3.04330992
    H     -0.16024397      4.51036291     -4.64544371
    H      0.78903163      3.65906536     -3.45077531
    C     -1.33222255      3.52419966     -3.13913079
    N     -2.27085966      2.96453735     -2.79210047
    C     -3.16192250      3.42025131      0.48944077
    H     -4.16546445      3.59561238      0.81662915
    H     -3.09124891      2.44065333      0.06483256
    H     -2.89463503      4.14853689     -0.24748297
    C     -2.20398188      3.52956464      1.69027397
    N     -1.49075154      3.61095338      2.58434886
