120
Energy:   -591.29617345
    C      5.35125462     -1.50142975     -0.71313719
    H      6.05417849     -1.31686642     -1.49846171
    H      4.57460195     -2.14335050     -1.07320312
    H      5.84992136     -1.97125498      0.10874773
    C      4.73966057     -0.16697747     -0.24753026
    N      4.28430099      0.82658291      0.09913526
    C      1.20156762     -2.69833956     -4.08722618
    H      0.98410745     -3.43883351     -4.82836042
    H      0.88118571     -1.73910673     -4.43669278
    H      0.68564560     -2.93838232     -3.18107882
    C      2.71820290     -2.66767785     -3.82175057
    N      3.84740680     -2.64484881     -3.62409192
    C      0.97178488      5.69302997      2.15732770
    H      0.26351069      5.89539922      2.93340407
    H      1.64043298      6.52262964      2.05948500
    H      1.52872223      4.81313396      2.40330105
    C      0.22724207      5.47415828      0.82715809
    N     -0.32710391      5.31119835     -0.16321364
    C     -1.47141782     -0.75549208     -2.29917547
    H     -2.11986899     -0.13731529     -2.88421284
    H     -1.58644523     -1.77642366     -2.59811776
    H     -0.45668444     -0.45168553     -2.45055855
    C     -1.83303755     -0.61308032     -0.80902445
    N     -2.10227988     -0.50704829      0.30046071
    C      2.65665360     -4.86029838     -0.40973281
    H      2.22186027     -4.16942825     -1.10150836
    H      1.89570182     -5.50719629     -0.02583886
    H      3.40206509     -5.44343838     -0.90894071
    C      3.30479851     -4.08429843      0.75187480
    N      3.78737187     -3.50653119      1.61674447
    C      0.85903900      1.99317235     -0.60210904
    H      1.72992584      1.48559683     -0.96102880
    H      0.86260623      3.00243941     -0.95744883
    H     -0.01735896      1.49289465     -0.95784480
    C      0.86183677      1.99113748      0.93788707
    N      0.86391984      1.98962243      2.08448418
    C     -3.77470714     -3.50433472     -3.77660192
    H     -4.00415231     -2.69989450     -4.44378331
    H     -4.29771773     -4.38488293     -4.08643070
    H     -2.72125994     -3.69116753     -3.79214501
    C     -4.20791058     -3.12589587     -2.34806462
    N     -4.53045023     -2.84413095     -1.28445366
    C      1.22283539     -3.90857894      4.65618878
    H      1.26420752     -4.59994311      5.47178924
    H      0.48825007     -3.15819096      4.86161851
    H      2.17974206     -3.44629606      4.53159642
    C      0.84331322     -4.65887223      3.36598611
    N      0.56074171     -5.21749968      2.40537158
    C      0.86768678      2.98949631      5.43667851
    H      0.15424718      2.79216765      4.66404308
    H      0.52213157      3.80100276      6.04244083
    H      0.98645951      2.11652607      6.04389765
    C      2.22090614      3.36196467      4.80290829
    N      3.22843946      3.63928429      4.33103756
    C      4.21105728      3.99170406      1.02259396
    H      3.59301895      3.31946699      1.58029113
    H      4.21606287      4.94987905      1.49880268
    H      5.20917749      3.60826603      0.98221568
    C      3.65681820      4.13203161     -0.40734562
    N      3.24416201      4.23651184     -1.47200064
    C      3.35860938      0.96868488     -3.40952037
    H      4.00206845      0.89656787     -4.26137701
    H      3.45500363      0.08503369     -2.81389648
    H      3.63269569      1.82322889     -2.82682808
    C      1.89929169      1.11437229     -3.87937889
    N      0.81276333      1.22284318     -4.22920992
    C      0.78055345     -1.67028615      1.50570705
    H     -0.00265801     -2.39893116      1.48211797
    H      0.39685831     -0.74638713      1.88529596
    H      1.57022855     -2.01586277      2.13965431
    C      1.32348577     -1.45393358      0.08092073
    N      1.72772356     -1.29284926     -0.97989745
    C     -2.32453165     -4.58905214      0.88455897
    H     -2.18775488     -3.85763813      1.65347109
    H     -2.06380451     -5.55590220      1.26154890
    H     -3.34815925     -4.59185955      0.57298594
    C     -1.42337999     -4.24615904     -0.31625326
    N     -0.75243162     -3.99085954     -1.21031254
    C     -5.15351342      0.79553932     -1.32461434
    H     -6.19204474      0.99628993     -1.16320780
    H     -4.58742469      1.68782199     -1.15646477
    H     -4.82804695      0.03373024     -0.64740122
    C     -4.94197729      0.31882321     -2.77361200
    N     -4.78447902     -0.03611361     -3.85245662
    C     -1.73068386      0.37362199      3.80004251
    H     -2.63786318      0.79454640      4.18050078
    H     -1.56775969      0.72093625      2.80117935
    H     -0.91131054      0.67274045      4.41976391
    C     -1.83879805     -1.16257713      3.79814772
    N     -1.91929399     -2.30634720      3.79673696
    C     -4.87940565     -1.91096080      1.97274221
    H     -4.00274717     -2.15590715      1.41027321
    H     -5.74826084     -2.23057557      1.43623858
    H     -4.84416750     -2.40489244      2.92126153
    C     -4.94135325     -0.38751975      2.18928290
    N     -4.98747605      0.74675136      2.35050728
    C      3.70570629      0.23795515      3.38082479
    H      3.44589208      1.06080457      2.74811982
    H      4.01812387     -0.58984881      2.77913139
    H      4.50403731      0.52694604      4.03201673
    C      2.48099469     -0.17084559      4.22020757
    N      1.56914124     -0.47521633      4.84516621
    C     -2.18946216      0.92916970     -5.86468270
    H     -2.52456215      1.28225155     -4.91182312
    H     -2.96032825      1.07839843     -6.59159077
    H     -1.31365948      1.46966897     -6.15747835
    C     -1.85819830     -0.57169962     -5.76847693
    N     -1.61155731     -1.68916505     -5.69684736
    C     -0.50990443      4.32080909     -3.43244629
    H      0.34104226      4.41583616     -2.79076119
    H     -0.97918515      5.27564918     -3.54626680
    H     -0.19607817      3.96120855     -4.39009947
    C     -1.51089515      3.32733938     -2.81387089
    N     -2.25617824      2.58765602     -2.35331339
    C     -2.86469091      3.08836714      1.03054549
    H     -3.92551363      2.98773948      1.12765067
    H     -2.43464972      2.13389409      0.80931065
    H     -2.64233342      3.77207145      0.23807805
    C     -2.27686459      3.62290126      2.34976248
    N     -1.83920116      4.02088622      3.33197950
