120
Energy:   -591.26435652
    C      4.98410400     -2.12586902      0.97455097
    H      5.81614017     -2.23576555      1.63828190
    H      5.29875575     -2.32697674     -0.02816985
    H      4.21353410     -2.81465502      1.25148954
    C      4.44277422     -0.68691585      1.06385866
    N      4.03972960      0.38445019      1.13035229
    C      1.70138188     -1.60224481     -4.36668998
    H      2.73789163     -1.79416802     -4.18307842
    H      1.46321280     -1.86567349     -5.37603626
    H      1.10627392     -2.18593379     -3.69583024
    C      1.40887818     -0.10680002     -4.14378537
    N      1.19109587      1.00662660     -3.97782276
    C      0.80430954      5.68572710      2.29725294
    H      0.04856190      6.09545356      2.93433215
    H      1.61900705      6.37521138      2.22123668
    H      1.15556358      4.76253386      2.70863347
    C      0.21392148      5.43239299      0.89765880
    N     -0.22564926      5.24377424     -0.14440266
    C     -1.72865150     -0.63106476     -2.50386842
    H     -2.70544296     -0.66825635     -2.93906425
    H     -1.19988872     -1.53165392     -2.73678079
    H     -1.19442934      0.20821168     -2.89772224
    C     -1.85270591     -0.48929193     -0.97543427
    N     -1.94507006     -0.38373561      0.16255444
    C      3.01592588     -4.36514884     -1.88754708
    H      3.23871352     -3.33134103     -2.05035761
    H      2.25739775     -4.67892905     -2.57389694
    H      3.89943543     -4.94887863     -2.04107074
    C      2.51539754     -4.56131614     -0.44442901
    N      2.14273143     -4.70737162      0.63003799
    C      1.01918181      1.96743864     -0.49316789
    H      1.21877278      2.96561938     -0.82286295
    H      0.14246427      1.59854084     -0.98324938
    H      1.85211930      1.33967948     -0.73198302
    C      0.79493016      1.96524553      1.03041551
    N      0.62796461      1.96361267      2.16479261
    C     -3.27655626     -3.62553614     -4.60150063
    H     -2.23768481     -3.44148891     -4.77975020
    H     -3.64332784     -4.32653492     -5.32190220
    H     -3.40416178     -4.02570946     -3.61738821
    C     -4.06022250     -2.30555959     -4.72450119
    N     -4.64369763     -1.32277705     -4.81608070
    C      1.09313138     -4.30196712      4.17844185
    H      0.32923599     -3.60751924      4.45970003
    H      1.19076611     -5.05103586      4.93624299
    H      0.82981019     -4.76541077      3.25065899
    C      2.43103674     -3.55634015      4.01828662
    N      3.42716808     -3.00118698      3.89904377
    C     -0.49670342      2.72438498      5.48465274
    H     -1.20002120      3.49715558      5.71502177
    H     -0.48045676      2.00834361      6.27958664
    H     -0.78387205      2.24047977      4.57455988
    C      0.90547600      3.33920016      5.31883608
    N      1.94946232      3.79695800      5.19537804
    C      4.07004657      3.50467100      2.47588730
    H      4.34592178      4.35911280      3.05788580
    H      4.87533451      2.80011372      2.47281182
    H      3.19970799      3.04970947      2.90064588
    C      3.76661623      3.94375461      1.03133353
    N      3.54069856      4.27067232     -0.04420242
    C      4.37193682      1.59122528     -2.23833907
    H      4.38782943      1.88075598     -1.20837811
    H      3.42840794      1.85509026     -2.66848743
    H      5.15651827      2.09553693     -2.76274427
    C      4.57782922      0.06891472     -2.34686957
    N      4.73112546     -1.06451469     -2.42767546
    C      0.94225412     -1.55476572      1.61205684
    H      0.55635530     -2.52538903      1.84416169
    H      0.22477093     -0.81039145      1.88778120
    H      1.85039025     -1.39297358      2.15428481
    C      1.22326273     -1.46199577      0.10075677
    N      1.43248641     -1.39292433     -1.02447482
    C     -1.35728498     -4.20120902      0.06695241
    H     -1.56991392     -3.20480852      0.39387007
    H     -0.59699977     -4.62594578      0.68861484
    H     -2.24484080     -4.79519612      0.13270248
    C     -0.86808283     -4.16907999     -1.39292738
    N     -0.50384960     -4.14515847     -2.47987423
    C     -5.24499633      0.71128798     -1.95850971
    H     -6.12456901      1.17092717     -2.35848960
    H     -5.16764915     -0.29068465     -2.32588873
    H     -4.38284112      1.26903144     -2.25935802
    C     -5.33125049      0.68910903     -0.42108709
    N     -5.39547063      0.67259580      0.72359394
    C     -2.43076043     -0.10908697      3.45309454
    H     -3.33994717      0.18520781      2.97177321
    H     -1.61083555      0.43051715      3.02712543
    H     -2.49487791      0.10683485      4.49911835
    C     -2.21000842     -1.62004672      3.25342185
    N     -2.04564852     -2.74502493      3.10475645
    C     -5.03029645     -2.70851277      1.28203603
    H     -4.56405028     -3.50219929      1.82754166
    H     -6.09353163     -2.81740268      1.33276098
    H     -4.74729316     -1.76864697      1.70801785
    C     -4.57839091     -2.76218168     -0.18918830
    N     -4.24192669     -2.80214063     -1.28458169
    C      2.91153121      0.41173807      4.51895675
    H      3.14518813      1.17359361      5.23301611
    H      2.88373588      0.83858449      3.53817714
    H      3.66006120     -0.35203011      4.55445474
    C      1.53791834     -0.19984998      4.85174456
    N      0.51520112     -0.65520509      5.09952020
    C     -2.30850372      1.20367751     -5.81033450
    H     -1.56225254      1.93120537     -5.56802775
    H     -3.01573947      1.13802293     -5.01008068
    H     -2.81210787      1.49478728     -6.70840858
    C     -1.63984210     -0.16790815     -6.01828741
    N     -1.14199312     -1.18911602     -6.17311781
    C     -0.03117405      4.23205492     -3.39113445
    H     -0.04576231      5.16586964     -2.86894919
    H     -0.09079886      4.41137444     -4.44431462
    H      0.87771452      3.71312151     -3.16858388
    C     -1.23248497      3.37684842     -2.94720437
    N     -2.12691555      2.74010830     -2.61667825
    C     -2.78128003      2.96824640      0.84271480
    H     -3.65712299      3.38505276      0.39097179
    H     -2.94315964      1.92973305      1.04317455
    H     -1.95033430      3.07781087      0.17756525
    C     -2.48367540      3.70535009      2.16169533
    N     -2.26209522      4.25415729      3.14373629
