120
Energy:   -590.82159689
    C      4.62056497     -2.71721932      0.53254237
    H      4.77437812     -2.95815076     -0.49857049
    H      3.81800923     -3.30865548      0.92113812
    H      5.51429741     -2.92243125      1.08393104
    C      4.26796207     -1.22387776      0.66369944
    N      4.00543318     -0.11201709      0.76135183
    C      1.13362383     -1.72604656     -4.59531421
    H      1.47291462     -2.19296690     -3.69433288
    H      1.83577546     -1.91375542     -5.38058331
    H      0.17925760     -2.12640252     -4.86697445
    C      1.00829901     -0.20765388     -4.37086523
    N      0.91498898      0.92285850     -4.20375276
    C      1.66974809      5.46962021      2.14782367
    H      1.03467298      5.89965396      2.89391399
    H      2.51232422      6.10875628      1.98512876
    H      2.00857475      4.50986097      2.47791119
    C      0.88344320      5.31215049      0.83308875
    N      0.29800347      5.19490712     -0.14579116
    C     -1.81360488     -0.48996753     -2.38920502
    H     -1.17768130     -1.33139342     -2.56949327
    H     -1.36469503      0.39065366     -2.79894320
    H     -2.76356434     -0.65495104     -2.85316250
    C     -2.00772289     -0.30892619     -0.87225340
    N     -2.15225258     -0.17413268      0.25718604
    C      2.42401764     -4.76059292     -2.08899203
    H      2.67873175     -3.73988746     -2.28439234
    H      1.65438060     -5.07166783     -2.76411446
    H      3.28841339     -5.37630973     -2.22541748
    C      1.92103715     -4.89575872     -0.63973676
    N      1.54654532     -4.99639580      0.43929967
    C      1.10860018      1.80183247     -0.59286369
    H      1.77156875      1.03728719     -0.94048901
    H      1.43944043      2.75267033     -0.95528774
    H      0.11990186      1.60729882     -0.95276838
    C      1.10124487      1.81369349      0.94707307
    N      1.09576850      1.82252456      2.09362598
    C     -4.38710295     -2.95618193     -4.25315561
    H     -4.66534751     -2.03824573     -4.72736366
    H     -5.03568230     -3.73989657     -4.58487125
    H     -3.37644525     -3.19752074     -4.50854880
    C     -4.50776113     -2.80201288     -2.72564996
    N     -4.59759664     -2.68722701     -1.58835258
    C      0.78031944     -4.47987407      4.05254623
    H      0.12077856     -3.69837302      4.36744640
    H      0.84590936     -5.22223076      4.82033761
    H      0.40244545     -4.92601970      3.15640761
    C      2.17902336     -3.89409547      3.78404899
    N      3.22042201     -3.45795668      3.58414059
    C      0.60625899      2.82020269      5.52098693
    H      0.02703754      3.68649191      5.76377426
    H      0.62958138      2.15947290      6.36229026
    H      0.16449503      2.31843327      4.68554026
    C      2.04215052      3.24652444      5.16312482
    N      3.11123703      3.56394036      4.89668022
    C      4.73776097      2.91985723      1.99007394
    H      5.51097158      2.19354164      1.85039143
    H      3.91314860      2.46905992      2.50163557
    H      5.11515162      3.73533048      2.57100317
    C      4.26857984      3.44034892      0.61873975
    N      3.91925317      3.82787864     -0.40228089
    C      4.22808092      1.07395164     -2.61523485
    H      4.34663113      1.32844707     -1.58272427
    H      3.30056515      1.46754461     -2.97537117
    H      5.03566411      1.49045962     -3.18023891
    C      4.23007050     -0.45827405     -2.76976796
    N      4.23155184     -1.59908572     -2.88482488
    C      0.64719302     -1.69622665      1.58557585
    H      1.56434372     -1.56698612      2.12132921
    H      0.21132796     -2.63792998      1.84656544
    H     -0.02909436     -0.90725775      1.84064947
    C      0.92785025     -1.66241292      0.07174358
    N      1.13681232     -1.63723706     -1.05537336
    C     -1.77279280     -4.19022085     -0.39560658
    H     -1.65768138     -3.22360749      0.04858723
    H     -1.17276882     -4.90007782      0.13446267
    H     -2.80026464     -4.48493299     -0.34717662
    C     -1.32326098     -4.13559288     -1.86752266
    N     -0.98856412     -4.09491987     -2.96343108
    C     -5.19296632      1.24645806     -0.91149054
    H     -5.10861463      0.38050672     -0.28866372
    H     -6.11005720      1.75344458     -0.69513878
    H     -4.36939039      1.90301429     -0.72292834
    C     -5.17977804      0.81814814     -2.39067162
    N     -5.16995876      0.49925193     -3.49198917
    C     -2.04204720      0.52161098      3.74024512
    H     -1.94663971     -0.52552570      3.93849339
    H     -1.92928029      1.06907856      4.65263865
    H     -1.28501845      0.82380713      3.04707555
    C     -3.43122066      0.80582489      3.13939610
    N     -4.46552345      1.01743507      2.69203670
    C     -4.66677191     -2.27095826      1.77093827
    H     -5.29793579     -1.88702745      2.54497281
    H     -5.14989939     -3.09814807      1.29423718
    H     -4.47971157     -1.50313887      1.04957780
    C     -3.33224998     -2.73808339      2.38122127
    N     -2.33863775     -3.08587929      2.83560471
    C      3.30408438     -0.02783575      4.27448162
    H      3.71708072      0.67331006      4.96926846
    H      3.24406639      0.42297181      3.30594175
    H      3.93073386     -0.89381366      4.22660896
    C      1.89415012     -0.43942738      4.73738301
    N      0.84438997     -0.74587605      5.08203414
    C     -2.60840003      1.69105146     -5.66193619
    H     -3.18484607      1.89138937     -4.78303070
    H     -3.15209426      2.01185899     -6.52586802
    H     -1.68003518      2.22031378     -5.60790673
    C     -2.33238631      0.17924679     -5.76124929
    N     -2.12688154     -0.94636049     -5.83519241
    C     -0.03540977      4.19363970     -3.37147283
    H      0.09310296      5.13608441     -2.88138852
    H     -0.19594623      4.35432357     -4.41708644
    H      0.84191770      3.59699361     -3.23287613
    C     -1.25201742      3.46468222     -2.77140048
    N     -2.15783711      2.92194025     -2.32461934
    C     -2.47460797      3.45744468      0.99662390
    H     -3.51794756      3.25770213      1.12486430
    H     -1.97895636      2.56798951      0.66784117
    H     -2.34623583      4.22823854      0.26566802
    C     -1.87110554      3.91570901      2.33728740
    N     -1.42177055      4.25690764      3.33547232
