120
Energy:   -590.64040666
    C      4.83719931     -2.63298462      0.41160562
    H      5.67939151     -2.84123925      1.03789828
    H      5.08682642     -2.85072109     -0.60583048
    H      4.00942355     -3.24005450      0.71352043
    C      4.45717332     -1.14614642      0.54002838
    N      4.17422669     -0.03912780      0.63564495
    C      1.05553239     -2.05438735     -4.58257057
    H      2.08857340     -2.32673192     -4.64219356
    H      0.54384673     -2.40293731     -5.45526169
    H      0.61930895     -2.49829877     -3.71219660
    C      0.93300589     -0.52186004     -4.49342291
    N      0.84177934      0.61917620     -4.42704843
    C      1.59975530      5.53093090      2.11357150
    H      1.68249388      6.57937167      1.91652722
    H      1.52979808      4.99851271      1.18807923
    H      2.46362545      5.19978531      2.65113085
    C      0.33803020      5.26484574      2.95550289
    N     -0.60138149      5.06673325      3.58235908
    C     -1.84757618     -0.61429977     -2.35181297
    H     -1.28988812     -1.51366161     -2.51002960
    H     -1.34818920      0.20347664     -2.82799936
    H     -2.82745923     -0.72449618     -2.76724655
    C     -1.95867514     -0.33827681     -0.84083040
    N     -2.04139337     -0.13276517      0.28416481
    C      2.33328566     -4.72688402     -2.04831434
    H      2.61464212     -3.72101143     -2.28060520
    H      1.52096798     -5.02448419     -2.67797554
    H      3.16733925     -5.37713150     -2.21089332
    C      1.89705844     -4.81039674     -0.57375291
    N      1.57226744     -4.87257574      0.52412511
    C      1.05036839      1.95069395     -0.51849362
    H      0.08571796      1.64204439     -0.86358081
    H      1.79458797      1.27868791     -0.89191589
    H      1.25499245      2.94043790     -0.86982681
    C      1.07311841      1.93761350      1.02128277
    N      1.09005683      1.92787451      2.16771628
    C     -4.33530110     -3.31351036     -3.99750491
    H     -4.61897214     -2.46796862     -4.58868178
    H     -4.96048558     -4.14638377     -4.24319851
    H     -3.31421725     -3.56257333     -4.19814016
    C     -4.49682630     -2.97327818     -2.50426961
    N     -4.61708915     -2.71995986     -1.39248805
    C      1.06714845     -4.29687423      4.08831574
    H      0.45619304     -3.49970656      4.45731082
    H      1.16962613     -5.04704407      4.84438625
    H      0.60952861     -4.72484681      3.22095039
    C      2.45760925     -3.74855438      3.71741936
    N      3.49287051     -3.34030533      3.44127014
    C      0.65950035      2.76970118      5.64217645
    H      0.17016472      3.57547664      6.14831549
    H      0.74431917      1.93246938      6.30304539
    H      0.08778592      2.48894362      4.78239922
    C      2.06454609      3.21905663      5.19999303
    N      3.11066650      3.55362218      4.87076738
    C      4.70540941      3.10839403      1.80157847
    H      3.86763895      2.79304823      2.38775068
    H      5.17448070      3.94711274      2.27213362
    H      5.40777293      2.30509873      1.72219816
    C      4.22518132      3.51127375      0.39492680
    N      3.86762967      3.81123602     -0.65238930
    C      4.05434184      0.95686975     -2.79032349
    H      4.36034901      1.26708497     -1.81306902
    H      3.03239371      1.23185796     -2.94812907
    H      4.66943899      1.43350277     -3.52474540
    C      4.19948178     -0.57138371     -2.91269900
    N      4.30754506     -1.70923788     -3.00381313
    C      0.92693945     -1.58486878      1.45578788
    H      0.29032541     -0.78468318      1.77094778
    H      1.87650973     -1.49750555      1.94115684
    H      0.47839895     -2.52095040      1.71552183
    C      1.12207974     -1.51501773     -0.07020068
    N      1.26737055     -1.46301044     -1.20636853
    C     -1.89633421     -3.99556750      0.36679200
    H     -1.85691012     -2.97084820      0.67223637
    H     -1.23550313     -4.57526022      0.97683931
    H     -2.89573108     -4.36198460      0.47561984
    C     -1.46579301     -4.10870659     -1.10746505
    N     -1.14523552     -4.19294379     -2.20511643
    C     -5.21029189      1.58906777     -1.37588491
    H     -4.39133572      1.26585759     -0.76781734
    H     -6.12837396      1.43727889     -0.84769504
    H     -5.09725967      2.62850704     -1.60323663
    C     -5.23030660      0.77669435     -2.68403201
    N     -5.24520846      0.17184541     -3.65800699
    C     -1.85534320      0.31809942      3.78848892
    H     -2.85164276      0.70773364      3.81022712
    H     -1.30740893      0.78390815      2.99622043
    H     -1.37311615      0.51960122      4.72216617
    C     -1.90407889     -1.20311360      3.55367886
    N     -1.94036482     -2.33572584      3.37885210
    C     -4.96124654     -1.71608387      1.73997298
    H     -5.78245675     -2.05816842      1.14542095
    H     -4.99952786     -2.18166161      2.70261051
    H     -4.04093013     -1.97050193      1.25707730
    C     -5.04878905     -0.18747939      1.90521413
    N     -5.11396843      0.95063614      2.02824368
    C      3.56902146      0.12105405      4.08826811
    H      4.02637891      0.77399762      4.80198306
    H      3.43238545      0.64256322      3.16400739
    H      4.19836076     -0.72937911      3.92828506
    C      2.20164175     -0.34529276      4.62155358
    N      1.18356541     -0.69250917      5.01860884
    C     -2.61031899      1.17829779     -5.88002267
    H     -1.69221630      1.71029662     -5.74230968
    H     -3.29742598      1.44602470     -5.10471281
    H     -3.02981189      1.43113957     -6.83133536
    C     -2.33902345     -0.33661533     -5.82491381
    N     -2.13703159     -1.46453700     -5.78388275
    C     -0.05082845      3.95942068     -3.45289298
    H      0.23422019      4.64177414     -2.67956173
    H     -0.20798289      4.49822479     -4.36387690
    H      0.72558158      3.23703244     -3.59516661
    C     -1.35235286      3.24156442     -3.05000763
    N     -2.32139693      2.70708780     -2.75004117
    C     -2.79808486      3.33523961      1.32420319
    H     -2.59013256      2.28577464      1.30749124
    H     -3.76774219      3.51336978      0.90835055
    H     -2.77286819      3.68780027      2.33413596
    C     -1.73809031      4.08188792      0.49322312
    N     -0.94887619      4.63780152     -0.12547931
