120
Energy:   -590.60955576
    C      5.53825266     -4.82760814      1.38343210
    H      6.01200938     -4.22602400      0.63606922
    H      6.00829633     -5.78818359      1.41882792
    H      5.63016179     -4.35021426      2.33660935
    C      4.04760255     -4.99801966      1.03626910
    N      2.93774578     -5.12489878      0.77779047
    C      0.16368534     -2.05284625     -4.59602446
    H      0.21686800     -3.12146014     -4.58435660
    H      1.08592428     -1.65383251     -4.96366896
    H     -0.63823504     -1.74257947     -5.23285828
    C     -0.08602714     -1.53567389     -3.16711704
    N     -0.27194943     -1.15061557     -2.10323051
    C      0.31293364      5.35879843     -2.05461291
    H     -0.62381555      4.86901755     -1.88873399
    H      0.34061561      5.74755528     -3.05110722
    H      0.42463811      6.16111201     -1.35553200
    C      1.46054200      4.34946392     -1.86530126
    N      2.31498858      3.59796849     -1.72435013
    C      0.20182890      1.88697002     -4.32286973
    H      1.16039822      2.26988897     -4.60468194
    H     -0.06010989      1.07282139     -4.96586985
    H      0.23849222      1.54397667     -3.30999735
    C     -0.85356794      3.00127441     -4.44961057
    N     -1.63935885      3.83092468     -4.54397489
    C      1.49612742     -3.54861377      3.59678446
    H      1.43483458     -4.41492579      2.97176697
    H      1.07707061     -2.70831277      3.08376915
    H      0.95151091     -3.72214617      4.50131664
    C      2.97131510     -3.26141991      3.93285140
    N      4.06965938     -3.04759103      4.18306852
    C     -2.85093415      0.18235480     -0.60630968
    H     -3.63625443      0.45401237      0.06776332
    H     -2.19220354     -0.51051934     -0.12579070
    H     -3.27130517     -0.27184729     -1.47917150
    C     -2.06371824      1.44230552     -1.01179124
    N     -1.47760022      2.38039610     -1.31369069
    C     -3.47963091     -3.19689562     -2.80644331
    H     -4.45002722     -3.11603246     -3.24994341
    H     -3.02651639     -4.11893657     -3.10548646
    H     -2.87044597     -2.37878707     -3.12969429
    C     -3.61190300     -3.16369310     -1.27249361
    N     -3.71038559     -3.13897231     -0.13039833
    C      2.57372989      0.34143728      4.17343652
    H      2.27509686     -0.44892438      3.51689487
    H      2.49313346      0.01180183      5.18819944
    H      3.58764619      0.61333690      3.96620855
    C      1.66025367      1.56206587      3.95611866
    N      0.98012910      2.47087933      3.79431563
    C      2.76639325      4.47320438      1.57626058
    H      2.79766976      4.98364079      2.51614176
    H      1.75841722      4.18744178      1.35895169
    H      3.12713837      5.12214419      0.80578075
    C      3.65290872      3.21585158      1.64521174
    N      4.31295979      2.27969527      1.69654902
    C      4.57968378      0.99303280     -1.70139011
    H      4.20555152      0.79122198     -0.71945446
    H      4.67005879      2.05038180     -1.83830078
    H      5.53952616      0.53489566     -1.81848858
    C      3.60662485      0.42107133     -2.74906201
    N      2.88213824     -0.00477999     -3.52910135
    C      2.99268995     -3.15376889     -2.14439454
    H      2.32860401     -2.52889883     -1.58454862
    H      2.79282805     -4.18016561     -1.91753755
    H      2.84484903     -2.98437710     -3.19050571
    C      4.44891200     -2.81966763     -1.77103991
    N      5.53313551     -2.57091405     -1.49306041
    C      1.19596353      1.04269949      0.19775633
    H      0.86861540      2.05867595      0.27215531
    H      1.05146388      0.69382211     -0.80339477
    H      2.23412627      0.98310059      0.44987772
    C      0.38089188      0.16835180      1.16872199
    N     -0.22596601     -0.48263980      1.89165007
    C     -0.11278733     -3.61325540      0.27577121
    H      0.86700177     -3.19847793      0.38923113
    H     -0.27903018     -4.34840275      1.03525839
    H     -0.84203676     -2.83552247      0.36646762
    C     -0.23411194     -4.27151747     -1.11115755
    N     -0.32444363     -4.76162351     -2.14378905
    C     -6.44404688     -0.42272519      0.44747226
    H     -7.49130607     -0.50853561      0.64942511
    H     -6.10385177      0.55008331      0.73523950
    H     -5.91151792     -1.16574842      1.00355542
    C     -6.19284634     -0.62994175     -1.05770533
    N     -6.00581612     -0.78422390     -2.17837847
    C     -1.60471112      0.77820955      5.28820916
    H     -1.66882161      1.01601985      4.24694248
    H     -1.10717704      1.57188714      5.80535015
    H     -2.58984748      0.65493688      5.68721953
    C     -0.81065572     -0.52894377      5.46828199
    N     -0.21944539     -1.50217883      5.60235439
    C     -2.68169679     -2.62086808      3.09585506
    H     -2.71178736     -2.87710635      4.13428497
    H     -1.66499579     -2.59967219      2.76303546
    H     -3.22621224     -3.34975066      2.53271014
    C     -3.31798424     -1.23353422      2.89081102
    N     -3.79172917     -0.20060111      2.73814641
    C      5.74136205     -0.98944399      1.75224759
    H      5.95209604     -1.46300924      2.68831774
    H      5.87801914      0.06742253      1.84846135
    H      6.40525349     -1.36821961      1.00346439
    C      4.28586861     -1.28380856      1.34421778
    N      3.20218758     -1.50297637      1.04042104
    C     -4.57499475      1.77938016     -3.90643356
    H     -4.18121752      2.75778556     -4.08688447
    H     -4.82657849      1.68153810     -2.87104394
    H     -5.45171750      1.63234330     -4.50194718
    C     -3.51781983      0.72364846     -4.27981241
    N     -2.73070505     -0.06239178     -4.55780993
    C     -3.66371377      5.04214021     -1.51728572
    H     -4.35581559      5.77852462     -1.86890091
    H     -3.09118925      4.66887556     -2.34056469
    H     -3.00701892      5.48468511     -0.79769904
    C     -4.43676288      3.88258329     -0.86198212
    N     -5.01233309      3.01924045     -0.37407881
    C     -2.14406730      2.96913712      2.19053713
    H     -2.32880875      3.19320861      3.22037340
    H     -1.54455459      2.08569543      2.11972471
    H     -3.07497508      2.80970655      1.68765375
    C     -1.40121522      4.14760022      1.53403465
    N     -0.84812808      5.02501957      1.04523872
