120
Energy:   -590.36461152
    C      4.76000577     -2.12126220     -1.60302132
    H      5.40319779     -2.09829995     -2.45781775
    H      3.81182601     -2.53181829     -1.88104637
    H      5.20170823     -2.72819321     -0.84050393
    C      4.56323840     -0.68988730     -1.07005931
    N      4.41673615      0.37583637     -0.67324486
    C      1.03402394     -1.77658344     -4.38876022
    H      1.94037428     -1.93422679     -3.84233748
    H      1.16554056     -2.10256142     -5.39937431
    H      0.24197704     -2.33429454     -3.93431647
    C      0.68022621     -0.27784052     -4.37473095
    N      0.41680771      0.83804171     -4.36428553
    C      1.51587375      5.46668926      1.53214705
    H      0.95352462      5.72244962      2.40578901
    H      2.18559617      6.26599843      1.29240591
    H      2.07700518      4.57471126      1.71763523
    C      0.55372498      5.23195894      0.35283733
    N     -0.16263851      5.05719154     -0.52521236
    C     -1.90235368     -0.82834416     -1.90252518
    H     -1.33505760     -1.72754762     -2.02297628
    H     -1.37801901     -0.01256268     -2.35471190
    H     -2.85679609     -0.94313807     -2.37237743
    C     -2.09980269     -0.54306092     -0.40211612
    N     -2.24681245     -0.33065459      0.71500663
    C      2.05242351     -5.23727615     -0.25057828
    H      1.54163938     -4.60384956     -0.94539517
    H      1.33626938     -5.76731246      0.34194503
    H      2.66019450     -5.93666710     -0.78570986
    C      2.94356309     -4.37947920      0.66683909
    N      3.60705702     -3.74081038      1.34989802
    C      1.15447297      1.81164023     -1.15682649
    H      1.89012698      1.12475373     -1.52000730
    H      1.37935455      2.79571448     -1.51168595
    H      0.18765587      1.51786082     -1.50876037
    C      1.16351366      1.80673476      0.38313916
    N      1.17024486      1.80308241      1.52971358
    C     -4.30526697     -3.55433576     -2.99051565
    H     -4.62207979     -2.81394603     -3.69503880
    H     -4.79844431     -4.48043826     -3.20029973
    H     -3.24647683     -3.68890613     -3.06636649
    C     -4.66335360     -3.09336664     -1.56542568
    N     -4.92996537     -2.75015417     -0.50438141
    C      1.32862614     -3.74857954      4.91673983
    H      1.36394113     -4.38345880      5.77731020
    H      0.68357518     -2.91767968      5.11273416
    H      2.31294417     -3.39169750      4.69616715
    C      0.78950701     -4.54434744      3.71353411
    N      0.38810832     -5.13683282      2.81769276
    C      1.53830049      3.06366042      4.82107399
    H      1.18041169      4.02701496      5.11900658
    H      1.61841382      2.43144870      5.68060252
    H      0.85455636      2.62979550      4.12167833
    C      2.92217240      3.21150374      4.16180099
    N      3.95252794      3.32157981      3.67094228
    C      5.50794532      3.19665715      0.76001885
    H      5.11295344      2.33801794      1.26163654
    H      5.80537855      3.92687112      1.48335841
    H      6.35587634      2.90886670      0.17428107
    C      4.42796812      3.79569766     -0.15998100
    N      3.62387600      4.24171054     -0.84496270
    C      3.73798109      2.21175400     -3.79876587
    H      2.71179379      2.45122348     -3.98449194
    H      4.36521336      2.85664126     -4.37807512
    H      3.95280054      2.34501437     -2.75905755
    C      4.00299918      0.74714348     -4.19409034
    N      4.20031718     -0.34332562     -4.48842739
    C      0.64784675     -1.77200370      1.52441137
    H      1.45026375     -2.19609850      2.09113063
    H     -0.21922401     -2.39248473      1.61435962
    H      0.42644273     -0.79358531      1.89667041
    C      1.05955683     -1.67678628      0.04352364
    N      1.36609371     -1.60589258     -1.05906458
    C     -2.62357142     -4.56717418      1.52058532
    H     -3.67610251     -4.50109118      1.33972204
    H     -2.34092372     -3.83898673      2.25185299
    H     -2.38433668     -5.54589145      1.88083294
    C     -1.85983267     -4.30170818      0.20992483
    N     -1.29119445     -4.10405668     -0.76592148
    C     -5.38129574      0.96075729     -0.67799589
    H     -5.04220311      0.22519296      0.02119042
    H     -6.37095325      1.27215597     -0.41625565
    H     -4.72396719      1.80472254     -0.65473838
    C     -5.39103037      0.35655858     -2.09448774
    N     -5.39827825     -0.09329482     -3.14913031
    C     -1.35695302      0.58248559      4.04217636
    H     -2.28364052      1.09200171      4.20509900
    H     -0.97064369      0.84399022      3.07922282
    H     -0.65517085      0.86827989      4.79763813
    C     -1.58925456     -0.93854079      4.10632269
    N     -1.76221361     -2.07101407      4.15408256
    C     -4.85771025     -1.65797652      2.69627005
    H     -4.75597116     -2.12519889      3.65348088
    H     -4.03263741     -1.93587617      2.07423653
    H     -5.77164144     -1.97584990      2.23955857
    C     -4.87624889     -0.12805502      2.87118869
    N     -4.89005175      1.01104108      3.00142357
    C      3.91936969     -0.12082256      2.72431156
    H      4.79841008      0.28124624      3.18314580
    H      3.58511528      0.54108426      1.95291514
    H      4.14381507     -1.07750459      2.30089350
    C      2.81224959     -0.27524539      3.78357483
    N      1.98794835     -0.39022021      4.57224448
    C     -3.04294924      0.79735248     -5.52250317
    H     -2.17086251      1.37144633     -5.75655693
    H     -3.48231966      1.16796679     -4.62000787
    H     -3.74886357      0.87878205     -6.32247396
    C     -2.64974762     -0.67952139     -5.33319902
    N     -2.35699114     -1.77912111     -5.19225348
    C     -0.84537647      4.00008205     -3.66776587
    H     -1.30414192      4.94549735     -3.86932069
    H     -0.60524544      3.51604480     -4.59131561
    H      0.04959404      4.15148910     -3.10119478
    C     -1.81879657      3.11812801     -2.86389375
    N     -2.54355208      2.46147314     -2.26537442
    C     -2.46150134      3.06975253      1.11762330
    H     -3.30345097      2.48824226      1.43046001
    H     -1.76472967      2.44084572      0.60392636
    H     -2.78992607      3.84859730      0.46154623
    C     -1.77986628      3.69089516      2.35097462
    N     -1.27235800      4.15336409      3.26926074
