120
Energy:   -590.20157198
    C      3.76098822     -1.49252187      1.99684775
    H      4.16997835     -0.50391812      1.97982134
    H      4.25055464     -2.06804295      2.75447515
    H      2.71342809     -1.44152460      2.20878203
    C      3.97544238     -2.16045123      0.62590655
    N      4.13511325     -2.65775501     -0.39482149
    C      0.65454382      1.94254398     -4.77446189
    H      1.52846295      2.36195162     -5.22752122
    H      0.56980076      2.29622284     -3.76816722
    H     -0.21132883      2.23670064     -5.33001162
    C      0.76492973      0.40650887     -4.77113090
    N      0.84711707     -0.73713909     -4.76865082
    C     -0.81911403      4.56682148      1.81250159
    H     -1.12793211      3.68589832      1.28952361
    H     -1.68138945      5.09161037      2.16743370
    H     -0.20263614      4.29118898      2.64249004
    C     -0.02088073      5.47609498      0.85979738
    N      0.57344024      6.15309043      0.15046579
    C     -4.77969269      2.02934153     -2.44312488
    H     -4.46119567      2.12713158     -1.42631766
    H     -5.35413884      1.13324787     -2.55233507
    H     -5.38053440      2.87309488     -2.71139454
    C     -3.54655217      1.96392776     -3.36328003
    N     -2.62842300      1.91522423     -4.04837737
    C      1.61814778     -3.33197557     -2.62691035
    H      0.90724960     -3.20590049     -3.41661221
    H      2.58737715     -3.50867583     -3.04436759
    H      1.64451983     -2.44697407     -2.02609762
    C      1.20838722     -4.53285591     -1.75422330
    N      0.90330185     -5.42696591     -1.10446812
    C     -5.43976505     -1.54084132     -0.44116004
    H     -5.11752693     -0.54390909     -0.65839009
    H     -6.15334423     -1.51933032      0.35586011
    H     -5.89098074     -1.96765474     -1.31244289
    C     -4.22711102     -2.39234749     -0.02162764
    N     -3.32423497     -3.02633254      0.29073330
    C     -1.17543908     -0.78191605     -1.94635526
    H     -0.12544463     -0.66284155     -1.77832821
    H     -1.42044695     -0.43874470     -2.92976955
    H     -1.43648686     -1.81545724     -1.85391193
    C     -1.95830577      0.04032364     -0.90585458
    N     -2.54118560      0.65251846     -0.13115453
    C      3.68097570     -6.08186135      0.61220569
    H      4.59086850     -6.58786687      0.85909369
    H      3.85864213     -5.40180298     -0.19454976
    H      2.94268360     -6.79851585      0.31855591
    C      3.17829125     -5.30091918      1.84063463
    N      2.80401982     -4.71947224      2.75525582
    C      3.33685770      4.57028020     -0.81145247
    H      2.59381563      4.10578479     -0.19742260
    H      3.19917751      5.63128603     -0.79696453
    H      4.30996182      4.33173549     -0.43586775
    C      3.20389664      4.05507627     -2.25661207
    N      3.10490110      3.67148353     -3.33259908
    C      0.91779041      1.17097765      1.56125112
    H      0.27970980      0.32090934      1.68428436
    H      0.61983805      1.94192385      2.24078437
    H      1.93010999      0.88926901      1.76311346
    C      0.80799454      1.69030512      0.11562190
    N      0.72624651      2.07696802     -0.96071476
    C      3.37551349      0.17350696     -2.35138683
    H      3.52065296      0.83638009     -3.17869205
    H      2.33170144     -0.03302664     -2.23869537
    H      3.90268449     -0.74035695     -2.52983170
    C      3.91019900      0.83200125     -1.06604770
    N      4.30829667      1.32228018     -0.10905429
    C     -2.54783354     -5.69900648     -1.49452529
    H     -3.59041189     -5.57540600     -1.28799809
    H     -1.98139196     -5.48116835     -0.61328209
    H     -2.36150939     -6.70803061     -1.79792719
    C     -2.13071927     -4.73818067     -2.62343159
    N     -1.82015873     -4.02280218     -3.46395365
    C     -0.47523678     -4.04514753      1.91055789
    H     -0.42909025     -4.94315377      1.33059627
    H     -1.49675662     -3.81433838      2.12992842
    H      0.06355082     -4.18285906      2.82469275
    C      0.15312142     -2.88667874      1.11386721
    N      0.62096266     -2.02414607      0.52069478
    C     -4.34916689      3.15941405      1.53928183
    H     -3.42250070      2.93045215      1.05578787
    H     -4.15416664      3.56945127      2.50816958
    H     -4.89091020      3.87186499      0.95291424
    C     -5.18382417      1.87340189      1.68460887
    N     -5.80526445      0.91590738      1.79281145
    C      2.41040589     -2.69490247      5.47498987
    H      3.31815574     -2.25468175      5.11848446
    H      2.41859778     -3.74498588      5.26966858
    H      2.32858572     -2.53845749      6.53032371
    C      1.20989222     -2.04231878      4.76470722
    N      0.31605522     -1.55644055      4.23586950
    C      1.00189052      1.90739073      5.31665648
    H      0.79589244      2.68760971      4.61400200
    H      1.10416251      2.32692507      6.29565110
    H      0.19694127      1.20244920      5.31301795
    C      2.30970605      1.19523038      4.92416932
    N      3.28343416      0.66499463      4.63194479
    C      5.08301730      2.97069359      2.65431628
    H      5.08439820      1.91138978      2.80522587
    H      5.64930783      3.44222276      3.43012191
    H      5.52192501      3.19628132      1.70491157
    C      3.63429323      3.49197294      2.68697222
    N      2.55565231      3.88008910      2.71128605
    C     -2.59329888     -1.40368640     -5.54900761
    H     -1.72796776     -1.91993492     -5.18902191
    H     -2.32566505     -0.40311782     -5.81758486
    H     -2.98047690     -1.91192886     -6.40730936
    C     -3.66667645     -1.36925599     -4.44525260
    N     -4.46585484     -1.34362099     -3.62345682
    C     -0.72535525      4.80879392     -2.75774143
    H     -0.48805451      5.84591492     -2.87162108
    H     -0.95374303      4.38800410     -3.71465002
    H      0.11221468      4.29578919     -2.33323956
    C     -1.94366002      4.66008083     -1.82757053
    N     -2.85074330      4.54935717     -1.13501601
    C     -2.65130816     -0.73031844      2.91389126
    H     -2.06166630     -1.08454138      2.09428844
    H     -3.68536563     -0.73820167      2.63900566
    H     -2.50267961     -1.36640418      3.76136018
    C     -2.22559514      0.70633430      3.26941529
    N     -1.90863244      1.77598756      3.53411910
