120
Energy:   -589.90989814
    C      5.05999404     -2.90009431      0.60102540
    H      5.98150507     -3.18083568      1.06675267
    H      5.11779667     -3.09399930     -0.44966904
    H      4.25850211     -3.46821151      1.02499782
    C      4.80406324     -1.39929161      0.83273789
    N      4.61351112     -0.28187578      1.00525838
    C      1.26808996     -1.68392468     -4.47023773
    H      2.31790336     -1.88526892     -4.51769824
    H      0.80260794     -2.00108388     -5.37998254
    H      0.83985278     -2.21555080     -3.64629254
    C      1.04343060     -0.17252046     -4.27844242
    N      0.87616149      0.95278869     -4.13564210
    C      1.25157491      5.55133939      1.79332021
    H      0.81581838      6.18686560      2.53569671
    H      2.20422937      5.94280374      1.50331293
    H      1.37751206      4.56771633      2.19522144
    C      0.32637125      5.48892251      0.56380716
    N     -0.36248492      5.44245030     -0.35162119
    C     -1.81118879     -0.41743956     -2.31533397
    H     -1.20667192     -1.28709328     -2.46752449
    H     -1.33876387      0.42905502     -2.76828066
    H     -2.77274656     -0.56928366     -2.75946133
    C     -1.97725581     -0.16556528     -0.80517468
    N     -2.10090026      0.02196657      0.31920756
    C      2.46440975     -4.56009840     -2.00897172
    H      2.65744418     -3.53005587     -2.22495845
    H      1.68539657     -4.91877626     -2.64880587
    H      3.35352093     -5.13192850     -2.17447319
    C      2.02812489     -4.70335404     -0.53902841
    N      1.70329097     -4.81001437      0.55541120
    C      0.59572652      2.15837946     -0.61602686
    H      0.77225211      1.29692559     -1.22564651
    H      1.10240461      3.00220824     -1.03570459
    H     -0.45484083      2.35722979     -0.57521168
    C      1.12445654      1.89755013      0.80665112
    N      1.51812007      1.70335084      1.86589954
    C     -4.12972645     -3.37990316     -4.14941767
    H     -4.37766450     -2.55986592     -4.79048385
    H     -4.76711728     -4.21052401     -4.37010074
    H     -3.10961579     -3.66104243     -4.30826988
    C     -4.32371183     -2.96003951     -2.68051189
    N     -4.46814276     -2.64743194     -1.58684477
    C      1.18776368     -4.40237085      4.20931728
    H      0.57939444     -3.66230764      4.68586056
    H      1.30060449     -5.24426944      4.85998833
    H      0.72106716     -4.71536325      3.29875196
    C      2.57265077     -3.80532789      3.89750412
    N      3.60376216     -3.36080226      3.66534505
    C      0.68747500      2.78495551      5.13607542
    H     -0.00436220      3.59820042      5.20603387
    H      0.71809292      2.26149384      6.06878626
    H      0.37452149      2.11605677      4.36177981
    C      2.08955808      3.33059937      4.80738742
    N      3.13347267      3.73685603      4.56266427
    C      4.97812563      3.03166885      1.76983501
    H      4.32795359      2.45170327      2.39097623
    H      5.37384099      3.85025098      2.33395533
    H      5.78168377      2.41656510      1.42221341
    C      4.18782858      3.57352995      0.56425750
    N      3.59941651      3.97697017     -0.33334976
    C      3.92634698      0.96074459     -2.07346358
    H      3.33576664      0.97423008     -1.18131270
    H      3.38342507      1.42904596     -2.86771085
    H      4.83991904      1.49153148     -1.90449481
    C      4.24288257     -0.49660725     -2.45756100
    N      4.47855771     -1.58167194     -2.74353898
    C      1.07713538     -1.59564320      1.59808486
    H      0.66814530     -2.55977645      1.81734356
    H      0.42550790     -0.83690948      1.97835301
    H      2.03882934     -1.50318215      2.05797048
    C      1.21951167     -1.43309592      0.07332017
    N      1.32551729     -1.31207209     -1.06193645
    C     -1.80417809     -3.84128777      0.33392334
    H     -1.87774507     -2.81229555      0.61793584
    H     -1.09952408     -4.33694079      0.96850186
    H     -2.76215717     -4.30772229      0.43197437
    C     -1.33369705     -3.93758066     -1.12928385
    N     -0.98340254     -4.00927510     -2.21870811
    C     -5.59135082      1.06461900     -1.43701096
    H     -5.11977914      0.39122916     -0.75212669
    H     -6.63940044      1.11146964     -1.22654456
    H     -5.16243247      2.03917842     -1.33136023
    C     -5.37897494      0.56372913     -2.87770726
    N     -5.22085144      0.19079386     -3.95037114
    C     -1.81298436      0.21275115      3.84443842
    H     -2.80528944      0.55087840      4.05868308
    H     -1.45576256      0.69404471      2.95807045
    H     -1.16941198      0.45297496      4.66480798
    C     -1.82520233     -1.31234769      3.63107428
    N     -1.83429917     -2.44785309      3.47221498
    C     -4.99878085     -2.18397047      1.82086900
    H     -5.94164892     -2.62233647      1.56841063
    H     -4.59945695     -2.67058198      2.68611391
    H     -4.32058888     -2.30017883      1.00144825
    C     -5.19257337     -0.68543849      2.11826832
    N     -5.33686071      0.43028669      2.33969563
    C      3.73089970      0.09244023      4.35756961
    H      4.07939178      0.82543831      5.05482658
    H      3.67949483      0.52562937      3.38053133
    H      4.40646435     -0.73722710      4.34477876
    C      2.33100563     -0.39189769      4.77865556
    N      1.28872087     -0.75250928      5.09217319
    C     -2.40519203      1.27876998     -5.81459950
    H     -1.49901165      1.81713209     -5.63047034
    H     -3.12971837      1.53475883     -5.06999867
    H     -2.78231751      1.53568437     -6.78241687
    C     -2.12385877     -0.23426894     -5.75834277
    N     -1.91439337     -1.36079519     -5.71645709
    C     -0.44675318      4.28007697     -3.62110146
    H     -0.27155333      5.17349087     -3.05894774
    H     -0.67163705      4.53534284     -4.63557949
    H      0.42780275      3.66420124     -3.59374998
    C     -1.63395422      3.51323608     -3.00945717
    N     -2.51787936      2.94228818     -2.55406020
    C     -3.21065303      3.42856458      0.78708077
    H     -4.20946248      3.42870622      1.17085133
    H     -3.02919646      2.51223286      0.26524864
    H     -3.08653927      4.25214979      0.11536485
    C     -2.21290515      3.56184663      1.95255709
    N     -1.47003649      3.66108117      2.82030719
