120
Energy:   -589.86858311
    C      5.47970939     -4.88913159      0.94652016
    H      5.79332794     -3.90298716      0.67437544
    H      6.14070070     -5.60732290      0.50812443
    H      5.50050382     -4.98879452      2.01166521
    C      4.04706875     -5.13134408      0.43615372
    N      2.98040267     -5.31168228      0.05616270
    C      0.69051335     -1.20758621     -4.75326971
    H      0.70223535     -2.26664037     -4.90547702
    H      1.64208126     -0.79818697     -5.02124337
    H     -0.07126495     -0.76807471     -5.36271417
    C      0.40048678     -0.90513623     -3.27137613
    N      0.18454881     -0.67994847     -2.16803899
    C      0.46470157      5.70912285     -0.42189639
    H     -0.30675583      5.20711746      0.12376308
    H      0.07960316      6.03576147     -1.36524443
    H      0.80394798      6.55590192      0.13736756
    C      1.64101820      4.74278930     -0.65444458
    N      2.51683941      4.02331006     -0.82758727
    C      0.70840799      2.67089204     -3.48273304
    H      0.55774925      2.03167141     -4.32748101
    H      0.63223055      2.09683154     -2.58298273
    H      1.67981848      3.11573625     -3.54082248
    C     -0.36322432      3.77686873     -3.47828994
    N     -1.16110329      4.60031865     -3.47498185
    C      1.93752625     -4.38163083      3.23033940
    H      2.33460783     -3.67473766      2.53210702
    H      2.01554756     -5.36789259      2.82278634
    H      2.49051433     -4.32883617      4.14484254
    C      0.45784115     -4.05553314      3.50564340
    N     -0.64385167     -3.81273859      3.71061974
    C     -2.52688831      0.34723325     -0.66416379
    H     -3.43913384      0.44394097     -0.11338627
    H     -1.97071290     -0.48654178     -0.28948096
    H     -2.74986194      0.19118990     -1.69897407
    C     -1.69349666      1.63264724     -0.50678135
    N     -1.07299869      2.58969638     -0.38960297
    C     -2.95328109     -2.52663153     -3.75068870
    H     -2.35675124     -1.64378966     -3.84888515
    H     -3.84771697     -2.41875581     -4.32796366
    H     -2.40041284     -3.37179450     -4.10415063
    C     -3.32023676     -2.73612177     -2.26979121
    N     -3.59345193     -2.89209677     -1.16719571
    C      2.14546607     -0.68243339      4.49732363
    H      1.65981694     -1.26735674      3.74438952
    H      1.41034244     -0.25896080      5.14936910
    H      2.80647951     -1.30599219      5.06224376
    C      2.95110249      0.44739555      3.82946397
    N      3.55093543      1.28860455      3.33221211
    C      0.95024516      3.62486800      2.66567502
    H      0.72349323      4.66058796      2.80978573
    H      0.52559005      3.29198988      1.74168406
    H      2.01168565      3.49255362      2.63854432
    C      0.36010244      2.80373345      3.82716959
    N     -0.07928564      2.19236146      4.69195509
    C      5.07082538      1.63211129     -1.46974847
    H      4.49573453      2.11804454     -0.70945933
    H      5.72243023      2.34308589     -1.93324101
    H      5.65236117      0.84842571     -1.03094087
    C      4.12372389      1.03737909     -2.52847052
    N      3.41856379      0.59457393     -3.31673722
    C      3.31637471     -2.79649669     -2.38109368
    H      3.25083078     -2.39556687     -3.37097218
    H      2.47919771     -2.46213131     -1.80469663
    H      3.31280926     -3.86544944     -2.42827846
    C      4.62075191     -2.31627838     -1.71807748
    N      5.59192003     -1.95873402     -1.22443179
    C      1.81997226      0.86491258      0.31359226
    H      0.86763916      1.04832276      0.76561280
    H      1.74070234      0.98550157     -0.74663114
    H      2.53727917      1.55912205      0.69887541
    C      2.27232450     -0.57176422      0.63443059
    N      2.60912130     -1.64143539      0.87330932
    C     -0.14863055     -3.54384945     -0.10328035
    H      0.81578455     -3.67130855      0.34231799
    H     -0.85529235     -4.17973703      0.38781555
    H     -0.45618068     -2.52398176     -0.00237496
    C     -0.07696021     -3.91304861     -1.59665081
    N     -0.02359838     -4.18793417     -2.70853300
    C     -6.36756760     -0.36156171     -0.59855268
    H     -7.43629302     -0.31013899     -0.58950441
    H     -5.96640274      0.45539562     -0.03592798
    H     -6.05121985     -1.28535698     -0.16103071
    C     -5.86208282     -0.28180507     -2.05104159
    N     -5.48572643     -0.22242263     -3.13248560
    C     -1.85761526     -0.69543211      4.70015494
    H     -1.26345936     -0.17134266      5.41932752
    H     -1.91726561     -1.72867078      4.97174059
    H     -2.84149382     -0.27553298      4.67634760
    C     -1.21085289     -0.56697845      3.30846600
    N     -0.72930891     -0.47133886      2.27229033
    C     -3.58921264     -3.19525325      2.08769970
    H     -3.56362877     -3.63767471      3.06161392
    H     -2.59962577     -3.16948029      1.68155604
    H     -4.22191607     -3.77538614      1.44892643
    C     -4.13968063     -1.76063066      2.18989070
    N     -4.54952907     -0.69248893      2.26597655
    C      5.90781894     -0.79232306      1.94676914
    H      5.17307798     -0.52684173      1.21562240
    H      6.77794651     -1.17488578      1.45542113
    H      6.17209106      0.07332399      2.51748319
    C      5.33260813     -1.86969994      2.88484779
    N      4.90433753     -2.67185601      3.58328999
    C     -4.11486449      2.66200742     -4.22129931
    H     -3.72444152      3.65315221     -4.12079016
    H     -4.67002364      2.40657866     -3.34297502
    H     -4.75786863      2.61685718     -5.07535214
    C     -2.95232019      1.66810714     -4.40089045
    N     -2.08675312      0.92810320     -4.53460421
    C     -3.48636939      5.19085108     -1.04734115
    H     -3.72984310      5.57249174     -2.01686224
    H     -2.43969622      4.97328072     -1.00220233
    H     -3.73118508      5.92124532     -0.30471835
    C     -4.29002600      3.90348850     -0.78574292
    N     -4.88838488      2.94498855     -0.59097115
    C     -3.25880240      2.48649317      2.65868829
    H     -3.35216833      2.36535599      3.71770140
    H     -2.61554622      1.72589698      2.26802986
    H     -4.22398159      2.40552611      2.20396577
    C     -2.66109571      3.87206461      2.35121715
    N     -2.21607592      4.90368553      2.12229090
