120
Energy:   -589.62159680
    C      5.64150992     -4.88049363      1.51717890
    H      6.19444706     -4.22039967      0.88201225
    H      6.11606684     -5.83934146      1.53466189
    H      5.61134979     -4.47933029      2.50867142
    C      4.20609207     -5.02788697      0.97917260
    N      3.13735823     -5.13762802      0.57860245
    C      0.52868906     -1.61148389     -5.34034116
    H      1.44600161     -1.73170820     -5.87791346
    H      0.61055696     -0.77534659     -4.67771671
    H     -0.27022380     -1.44185897     -6.03161876
    C      0.24045293     -2.88599874     -4.52539832
    N      0.02584802     -3.83493298     -3.91863634
    C     -0.03168973      5.72940623     -1.43721491
    H     -0.50179583      6.49097244     -0.85077024
    H      0.92373433      6.07583117     -1.77195917
    H      0.09641401      4.84928382     -0.84234260
    C     -0.91456000      5.40144501     -2.65564896
    N     -1.57189704      5.15726298     -3.56282849
    C      0.61031466      2.11918527     -3.92244822
    H      1.20342229      1.69342604     -4.70465829
    H     -0.06579814      2.83694279     -4.33789341
    H      0.05424641      1.34570979     -3.43518763
    C      1.53010430      2.81215372     -2.90000910
    N      2.21492949      3.32810023     -2.13875670
    C      1.29544160     -3.61582915      3.19987172
    H      1.30791665     -4.39032869      2.46170168
    H      0.91420598     -2.71530134      2.76558132
    H      0.66956264     -3.91099809      4.01599054
    C      2.72698154     -3.37239261      3.71273822
    N      3.79282810     -3.19114304      4.09459064
    C     -2.51038951      0.10994963     -0.68881964
    H     -3.42077414      0.22703944     -0.13891966
    H     -1.82724895     -0.48956948     -0.12420039
    H     -2.71710442     -0.36891443     -1.62308793
    C     -1.88581188      1.49349594     -0.94824669
    N     -1.42078543      2.52360905     -1.14140193
    C     -3.30124333     -3.22353264     -3.43862906
    H     -2.64551478     -2.47636772     -3.83443813
    H     -4.30216404     -3.02710543     -3.76185216
    H     -2.99611034     -4.18752340     -3.78865016
    C     -3.24358799     -3.19417383     -1.89998878
    N     -3.20066096     -3.17231485     -0.75440115
    C      2.25523180     -0.04810622      4.86019284
    H      1.59986920     -0.61609363      4.23346296
    H      1.67631225      0.54652803      5.53559002
    H      2.88123041     -0.71334074      5.41740722
    C      3.13070695      0.87098432      3.98817458
    N      3.78253800      1.55528900      3.33891736
    C      1.85578214      4.61852729      2.95139164
    H      2.09575404      5.44251184      3.59042460
    H      1.32999444      4.97595414      2.09075674
    H      2.75752008      4.13260715      2.64211929
    C      0.96931308      3.61753799      3.71545514
    N      0.30929657      2.87225595      4.28433514
    C      4.15661330      0.54521343     -1.82534974
    H      5.02264760      0.00344439     -1.50696148
    H      3.35331937      0.36761567     -1.14118821
    H      4.37947565      1.59145843     -1.84990288
    C      3.74555814      0.07475231     -3.23293632
    N      3.43950889     -0.27552737     -4.28094852
    C      3.33696406     -3.58226729     -2.67368205
    H      2.73997937     -2.73801509     -2.94890500
    H      2.76384902     -4.23633790     -2.05028019
    H      3.64173631     -4.10623978     -3.55542226
    C      4.58239102     -3.10185708     -1.90575125
    N      5.50966800     -2.74416984     -1.33399186
    C      1.26165461      1.61520129      0.74015268
    H      0.80517640      2.57624243      0.85385297
    H      1.28642627      1.35254537     -0.29681277
    H      2.25992738      1.64684460      1.12401370
    C      0.44622136      0.56450406      1.51649277
    N     -0.16090576     -0.21778778      2.09451326
    C      0.30857504     -3.01700644     -0.44754627
    H      1.19666903     -3.27461940      0.09080753
    H      0.05982883     -3.80752999     -1.12437485
    H     -0.49667353     -2.87105319      0.24178056
    C      0.54734859     -1.71853463     -1.24036287
    N      0.72512635     -0.75176335     -1.83065087
    C     -6.20901703     -0.81064240     -0.06765746
    H     -7.26151249     -0.98788182      0.00810319
    H     -5.96410134      0.10243405      0.43354789
    H     -5.67733875     -1.62053472      0.38653602
    C     -5.81192442     -0.70405794     -1.55175895
    N     -5.51627092     -0.62470097     -2.65673996
    C     -1.76357423      0.37584616      5.25762469
    H     -1.48436313      0.79522839      4.31366501
    H     -1.39658196      0.99811335      6.04692774
    H     -2.83001307      0.31377720      5.31890057
    C     -1.15874822     -1.03401996      5.39202342
    N     -0.70842776     -2.08372938      5.49208938
    C     -2.52452452     -2.87105733      2.60226135
    H     -2.58074910     -3.28476449      3.58744426
    H     -1.50070546     -2.69035598      2.34919880
    H     -2.94897153     -3.55940732      1.90160586
    C     -3.30625223     -1.54499135      2.55697538
    N     -3.88828404     -0.55767496      2.52325792
    C      5.57038545     -1.05305039      1.79567048
    H      5.73166860     -1.59745539      2.70259447
    H      5.74834103     -0.01213154      1.96806205
    H      6.24079771     -1.40942984      1.04172076
    C      4.11724017     -1.25473955      1.32738607
    N      3.03530746     -1.40490629      0.97872704
    C     -3.79253342      2.20319575     -3.99195510
    H     -4.61912304      1.90383514     -3.38201001
    H     -4.15670346      2.59817600     -4.91730362
    H     -3.22636769      2.95423896     -3.48176929
    C     -2.89358347      0.98463200     -4.27229662
    N     -2.22427438      0.07735590     -4.48102363
    C     -4.10602707      5.01153266     -1.08149068
    H     -4.72482000      5.76072215     -0.63348332
    H     -4.09462924      5.14626937     -2.14291199
    H     -3.10985796      5.09702913     -0.70039156
    C     -4.66557203      3.61628622     -0.74713040
    N     -5.08217868      2.57746182     -0.49818398
    C     -2.76211767      2.64606689      2.39759997
    H     -2.88451416      2.69621808      3.45939286
    H     -2.19739930      1.77317893      2.14450144
    H     -3.72314989      2.59720003      1.92970234
    C     -2.01556121      3.90052680      1.90710656
    N     -1.45971598      4.83452922      1.54191192
