120
Energy:   -596.32276163
    C      4.67887775     -2.56147128     -0.71272655
    H      4.04989933     -3.17520726     -0.10230499
    H      5.70076283     -2.84465128     -0.56969135
    H      4.41356857     -2.69069671     -1.74122591
    C      4.49523244     -1.08459211     -0.31687012
    N      4.35850016      0.01501156     -0.02213702
    C      3.05791438      1.06088046     -3.07930196
    H      3.05523549      0.09539725     -2.61806973
    H      3.35952885      1.79711388     -2.36383837
    H      3.74237370      1.06135983     -3.90174606
    C      1.64255833      1.39013945     -3.58916052
    N      0.58876141      1.63528773     -3.96877340
    C      1.55799295      5.41929484      2.17785564
    H      1.08144215      5.55789439      3.12579534
    H      2.23480708      6.22812371      1.99725223
    H      2.09868122      4.49596530      2.18207990
    C      0.49157465      5.38461042      1.06738322
    N     -0.30242226      5.35878629      0.24058603
    C     -1.89166239     -0.40927765     -2.17697849
    H     -2.67983413      0.18260470     -2.59334463
    H     -2.00586230     -1.42615172     -2.48974776
    H     -0.94796266     -0.03574396     -2.51580365
    C     -1.95114404     -0.33521644     -0.63991087
    N     -1.99543083     -0.28007450      0.50450584
    C      2.00661502     -5.12891916     -2.32211350
    H      2.91135765     -4.61437262     -2.57027235
    H      1.18727282     -4.68253505     -2.84586790
    H      2.09237894     -6.15748209     -2.60425165
    C      1.76026586     -5.03157904     -0.80506472
    N      1.57684772     -4.95910490      0.32444705
    C      0.48892690      2.06645547     -0.28727611
    H      0.92582083      2.91392715     -0.77288462
    H     -0.55130262      2.25012602     -0.11672768
    H      0.60142376      1.20234232     -0.90820446
    C      1.19536902      1.82605801      1.05984994
    N      1.72134729      1.64707118      2.06284652
    C     -4.53399522     -2.93628204     -3.68006424
    H     -3.52362144     -3.17975355     -3.93455713
    H     -4.84023190     -2.06867998     -4.22631038
    H     -5.17241462     -3.75812710     -3.92884217
    C     -4.62857976     -2.65172042     -2.16954166
    N     -4.69900225     -2.43985136     -1.04488894
    C      1.88620082     -4.38483360      3.84983654
    H      1.30575331     -3.58429083      4.25863005
    H      2.17919903     -5.05006251      4.63502546
    H      1.30107414     -4.91831252      3.13016570
    C      3.14206017     -3.81177257      3.16718117
    N      4.07710454     -3.38510258      2.65891323
    C      1.47918244      2.64417326      5.40572276
    H      0.83210033      3.46298264      5.64180775
    H      1.68304569      2.08315352      6.29375188
    H      1.00507925      2.01123787      4.68494676
    C      2.79944283      3.18410367      4.82521636
    N      3.78243669      3.58610640      4.39300296
    C      4.96614269      3.08250859      1.20934409
    H      4.39856027      2.48115902      1.88840895
    H      5.39618217      3.90771414      1.73754949
    H      5.74554383      2.49157599      0.77548741
    C      4.04234506      3.61082546      0.09620474
    N      3.35453573      4.00418139     -0.73257810
    C      0.54560853     -2.08442044     -4.69480498
    H     -0.00171194     -2.38136970     -3.82465464
    H      0.27985298     -2.71648461     -5.51624760
    H      0.30957519     -1.06886228     -4.93528156
    C      2.05554445     -2.20898038     -4.41880072
    N      3.17976037     -2.30172092     -4.21330299
    C      1.15759378     -1.66278528      1.32929307
    H      0.83074111     -2.63185309      1.64389615
    H      0.48924737     -0.91956744      1.71118233
    H      2.14396841     -1.48070538      1.70186669
    C      1.17029441     -1.59978899     -0.20936549
    N      1.17975061     -1.55288539     -1.35496673
    C     -1.83202733     -4.01260790      0.49344230
    H     -1.16806867     -4.69759118      0.97806276
    H     -2.84443442     -4.29291010      0.69681793
    H     -1.65499555     -3.02356921      0.86135711
    C     -1.58531505     -4.04679483     -1.02628278
    N     -1.40162654     -4.07224855     -2.15778717
    C     -5.39748807      1.16606306     -0.71724831
    H     -4.78326102      0.47069541     -0.18424818
    H     -6.39738802      1.12164530     -0.33892800
    H     -5.01089096      2.15538408     -0.58807521
    C     -5.39881827      0.80691769     -2.21478390
    N     -5.39980866      0.53951763     -3.32976721
    C     -1.22911887      0.05375681      4.08286851
    H     -2.20923822      0.47598653      4.16025261
    H     -0.69830916      0.52843776      3.28423333
    H     -0.70180763      0.20559454      5.00144744
    C     -1.34138305     -1.45565958      3.79886339
    N     -1.42496883     -2.57948869      3.58740867
    C     -4.61840089     -1.89916563      2.29311003
    H     -4.47366054     -2.43891562      3.20559037
    H     -3.79961108     -2.09098237      1.63152960
    H     -5.53084593     -2.21558798      1.83243657
    C     -4.69192542     -0.39084210      2.59502769
    N     -4.74666777      0.73217333      2.81981911
    C      4.28463121     -0.04802657      3.65841237
    H      4.70044137      0.77310084      4.20407883
    H      4.08068172      0.25817896      2.65365276
    H      4.98169308     -0.85976665      3.64936378
    C      2.97645988     -0.50224515      4.33218774
    N      2.00246686     -0.84043153      4.83384413
    C     -2.77289279      1.68410736     -5.42337528
    H     -3.37968985      1.92030649     -4.57431257
    H     -3.24153293      2.05493695     -6.31093425
    H     -1.81066038      2.13854458     -5.31159556
    C     -2.60996222      0.15638718     -5.52884885
    N     -2.48865300     -0.98106994     -5.60737872
    C     -0.78885857      4.59964733     -2.98556296
    H      0.14116474      4.47565670     -2.47118651
    H     -1.13048705      5.60669606     -2.86706431
    H     -0.65191015      4.38954213     -4.02575527
    C     -1.83281249      3.63109649     -2.39932966
    N     -2.61008363      2.90996637     -1.96285231
    C     -2.95899146      3.23283214      1.47288120
    H     -2.88768285      2.26744359      1.01698625
    H     -2.79322560      3.98914946      0.73436587
    H     -3.93364341      3.35591038      1.89691470
    C     -1.89742936      3.35659799      2.58164985
    N     -1.10704813      3.44874728      3.40717851
