120
Energy:   -589.03030621
    C      4.66315062     -2.43872519     -0.37162821
    H      5.68584555     -2.61825647     -0.11324134
    H      4.52127429     -2.62408040     -1.41585695
    H      4.03224294     -3.09095823      0.19533445
    C      4.30346505     -0.97483079     -0.05660523
    N      4.03566279      0.11510513      0.17794370
    C      1.10857905     -2.09278554     -5.54961353
    H      0.84434574     -2.94037518     -6.14683438
    H      1.11352077     -1.21398040     -6.16000373
    H      0.39469989     -1.97546491     -4.76125351
    C      2.50921994     -2.30656692     -4.94620436
    N      3.55206075     -2.46573687     -4.49693880
    C      1.49640615      5.46415655      2.09381561
    H      0.86117929      5.65024759      2.93450410
    H      2.12580389      6.31332445      1.92746823
    H      2.10217249      4.60379138      2.28802685
    C      0.63294349      5.21243981      0.84374724
    N     -0.00994371      5.02502525     -0.08698547
    C     -1.69835410     -0.80650375     -2.36017974
    H     -1.36504980     -1.79749168     -2.58766898
    H     -0.95928578     -0.10026596     -2.67625772
    H     -2.61809416     -0.61331593     -2.87170274
    C     -1.91803128     -0.67472224     -0.84163584
    N     -2.08159092     -0.57660491      0.28898912
    C      1.68528540     -4.53220179     -2.08529144
    H      2.62262711     -4.70144238     -2.57278330
    H      0.89144294     -4.90054557     -2.70095051
    H      1.67453752     -5.04370118     -1.14552979
    C      1.49422232     -3.02230272     -1.85013256
    N      1.35196717     -1.89811423     -1.67504610
    C      0.70697641      1.61163216     -0.40240953
    H      1.07961343      0.68289120     -0.78119980
    H      1.15036441      2.42118825     -0.94363510
    H     -0.35606764      1.64392534     -0.51985557
    C      1.06249982      1.73669148      1.09076269
    N      1.32720315      1.82980383      2.20249728
    C     -4.35320285     -3.15947919     -3.73492058
    H     -4.58718850     -2.31656910     -4.35108085
    H     -4.94304739     -3.99864205     -4.03953215
    H     -3.31498184     -3.39782161     -3.83586172
    C     -4.66176592     -2.82183689     -2.26441506
    N     -4.89150515     -2.57044684     -1.16955685
    C      1.34724231     -3.65644409      5.11839764
    H      0.41511632     -3.91663514      4.66195275
    H      1.43736351     -4.16061910      6.05785749
    H      2.15234574     -3.94972691      4.47754450
    C      1.40035279     -2.13421765      5.34556701
    N      1.43989595     -1.00085087      5.51470493
    C      1.30510209      2.75417535      5.50278113
    H      0.54186484      2.77640046      4.75319783
    H      1.01024763      3.36512229      6.33024942
    H      1.44860936      1.74754291      5.83594159
    C      2.62142234      3.29168007      4.91118189
    N      3.60148260      3.69187677      4.47070936
    C      4.65628088      3.24247325      1.20741513
    H      3.98327694      2.73075198      1.86324072
    H      5.00765206      4.13465917      1.68222209
    H      5.48732589      2.60709981      0.98255097
    C      3.92310677      3.60935198     -0.09621661
    N      3.37722532      3.88250987     -1.06682970
    C      3.25908364      0.81554966     -3.12359270
    H      3.36017614     -0.19845586     -2.79729023
    H      3.35408608      1.47165410     -2.28371140
    H      4.02360699      1.03813087     -3.83833793
    C      1.87650894      1.01030945     -3.77332789
    N      0.84711923      1.15531697     -4.25708528
    C      1.06830200     -1.62403317      1.69507062
    H      1.40615477     -1.31336903      2.66163333
    H      0.04419602     -1.34153237      1.56740175
    H      1.66453246     -1.15436293      0.94087025
    C      1.19786769     -3.15372406      1.57317511
    N      1.29433523     -4.29264846      1.48241836
    C     -2.17660445     -4.20384258      0.93228128
    H     -3.20349980     -4.45413043      1.09884091
    H     -1.98869460     -3.21268733      1.28893272
    H     -1.55124596     -4.89603496      1.45639536
    C     -1.86914069     -4.27389835     -0.57508670
    N     -1.64021994     -4.32605806     -1.69739067
    C     -5.21341360      1.03228457     -1.04700142
    H     -5.61641490      0.21354225     -0.48829655
    H     -5.83900878      1.89135778     -0.92241011
    H     -4.22808048      1.25437373     -0.69388084
    C     -5.15114657      0.65459521     -2.53866947
    N     -5.10478594      0.37338831     -3.64928414
    C     -1.45206461      0.37468992      3.78612474
    H     -2.22588888      0.85827643      4.34490938
    H     -1.48657654      0.70544575      2.76911510
    H     -0.50024939      0.62008892      4.20888497
    C     -1.65856753     -1.15054816      3.83716758
    N     -1.81231833     -2.28615723      3.87517130
    C     -4.87429740     -1.75910402      2.14974988
    H     -4.66224569     -2.26278471      3.06966293
    H     -4.16216175     -2.05577323      1.40829908
    H     -5.85953924     -2.01640187      1.82112329
    C     -4.78642444     -0.23687919      2.36587464
    N     -4.72099902      0.89648638      2.52678935
    C      4.25498980      0.27582897      3.85709794
    H      3.90964277      0.36475292      4.86592306
    H      3.62225590      0.84856766      3.21171641
    H      5.25812875      0.64202431      3.78992414
    C      4.21892492     -1.20352078      3.43069012
    N      4.19207298     -2.30496392      3.11321013
    C     -2.43086061      1.26171548     -5.71753353
    H     -2.94597862      1.55114226     -4.82546528
    H     -2.98892190      1.58335257     -6.57194343
    H     -1.46189570      1.71533105     -5.73299352
    C     -2.28086954     -0.27062976     -5.74948265
    N     -2.16919437     -1.41153044     -5.77327022
    C     -0.34473215      4.18171069     -3.26810210
    H     -0.66171256      5.19964393     -3.17735225
    H     -0.17731925      3.95087342     -4.29940524
    H      0.56277055      4.04045018     -2.71911812
    C     -1.43559419      3.25218878     -2.70453398
    N     -2.24779056      2.56011746     -2.28493190
    C     -2.74261824      3.18148031      1.11449090
    H     -3.79703638      3.24811182      1.28379185
    H     -2.48419800      2.17317819      0.86661010
    H     -2.46941465      3.82845072      0.30721884
    C     -1.99018392      3.60562907      2.38945773
    N     -1.42996236      3.92142711      3.33872849
