120
Energy:   -588.88955671
    C      4.50530456     -4.95777599      0.24425723
    H      4.65720133     -3.90082221      0.17587405
    H      5.34455289     -5.46700024     -0.18147978
    H      4.40211855     -5.23753191      1.27187017
    C      3.22730498     -5.34345836     -0.52357490
    N      2.27577620     -5.63061641     -1.09526083
    C      2.51136804     -3.10052104     -3.75449514
    H      1.65223156     -2.59315263     -3.36802136
    H      2.33870342     -4.15639294     -3.73964439
    H      2.69089482     -2.78258608     -4.76027175
    C      3.73800817     -2.76867411     -2.88453444
    N      4.65129750     -2.52159898     -2.23680916
    C      1.96430286      2.76723174      0.98434491
    H      2.83283641      3.09955038      1.51360287
    H      2.12066883      1.76844930      0.63379903
    H      1.11829421      2.78706126      1.63915423
    C      1.70683330      3.69790336     -0.21530493
    N      1.51513551      4.39083069     -1.10849877
    C      0.55844032      0.60009598     -2.12351855
    H      1.10214731      0.72556395     -1.21053406
    H     -0.07753281     -0.25680322     -2.04502619
    H     -0.03659583      1.47030035     -2.30675452
    C      1.54764358      0.40036602     -3.28678328
    N      2.28415037      0.25165798     -4.15288676
    C     -2.09826882      3.98885896     -2.00752201
    H     -2.33936159      3.30285307     -2.79248723
    H     -1.28668426      4.61382572     -2.31678911
    H     -2.95228805      4.59534820     -1.78907054
    C     -1.69020053      3.20381712     -0.74705004
    N     -1.38637514      2.61931779      0.19142863
    C      2.70601602      3.76745701     -4.14097716
    H      2.92014748      4.81097716     -4.04041088
    H      3.25454579      3.36895443     -4.96875120
    H      2.99138043      3.25683689     -3.24502329
    C      1.19763981      3.57402478     -4.38384583
    N      0.07458516      3.43000569     -4.56467260
    C     -1.03432238      0.44894755     -5.76034143
    H     -1.60325034      0.40213741     -6.66534417
    H     -0.04770828      0.80178501     -5.97713037
    H     -1.50982582      1.11843523     -5.07435177
    C     -0.95110853     -0.95506729     -5.13311119
    N     -0.88915203     -2.00042016     -4.66610976
    C     -4.92596065      1.92311476      0.32746786
    H     -4.24669194      1.70989342     -0.47130048
    H     -4.94076296      2.97709859      0.51131033
    H     -5.90786691      1.59423587      0.05802795
    C     -4.46908374      1.18638369      1.60029574
    N     -4.12891811      0.63785393      2.54797396
    C     -1.96580361      3.11277873      3.64577869
    H     -1.38288768      2.45705253      3.03329820
    H     -2.60898376      2.53457120      4.27577428
    H     -1.31468700      3.70813615      4.25116764
    C     -2.81619090      4.03185288      2.74926089
    N     -3.44934289      4.71614537      2.08176264
    C      5.70749619      0.50753909     -3.15791438
    H      6.32904734      1.31547742     -3.48319886
    H      5.13262322      0.14475111     -3.98423457
    H      6.32001737     -0.28207869     -2.77552627
    C      4.75874018      1.00331554     -2.05081559
    N      4.05234820      1.37244365     -1.22653022
    C      3.44537996     -1.18963646      1.00011154
    H      4.29084019     -1.01003843      0.36936459
    H      3.70871764     -1.89975446      1.75594537
    H      3.14363106     -0.27273132      1.46177339
    C      2.28383058     -1.74574326      0.15563047
    N      1.41900427     -2.15979005     -0.47312407
    C     -0.13307488     -4.60350395      1.54688199
    H     -0.00800546     -5.26153340      0.71246299
    H     -0.54516187     -3.67514834      1.21037157
    H     -0.79575509     -5.05103521      2.25784598
    C      1.23378244     -4.34846061      2.20888952
    N      2.25146984     -4.15856925      2.70178423
    C      1.40822727     -1.87758923      5.00036271
    H      1.70837450     -2.84615336      5.34196972
    H      0.77238773     -1.98189419      4.14612173
    H      0.87757324     -1.37287318      5.78046982
    C      2.65512057     -1.05987211      4.61540064
    N      3.58348931     -0.45104454      4.32877888
    C     -4.22905105     -1.68920017     -3.22339551
    H     -5.13168744     -1.39548967     -3.71723947
    H     -4.46912151     -2.26781233     -2.35594336
    H     -3.63263468     -2.27643677     -3.88998367
    C     -3.44279971     -0.43397079     -2.80172260
    N     -2.85739986      0.50060454     -2.48776795
    C     -2.39535275     -0.60442832      5.07806607
    H     -1.90787062      0.20796745      4.58079908
    H     -1.98450176     -0.72014697      6.05924381
    H     -3.44309850     -0.40028507      5.15191355
    C     -2.18030984     -1.90093856      4.27530973
    N     -2.02020062     -2.86624937      3.67762115
    C     -0.65554550     -4.54566195     -2.35901635
    H      0.23175887     -3.99971882     -2.11501381
    H     -0.88642696     -4.40664832     -3.39452012
    H     -0.49874687     -5.58619872     -2.16511811
    C     -1.82597867     -4.03389165     -1.49891324
    N     -2.69741937     -3.65285541     -0.85852738
    C      1.95050741      2.51777502      4.66009745
    H      2.86079146      2.58566739      5.21837495
    H      1.62932898      3.49947825      4.38080858
    H      2.11488570      1.93233384      3.77967852
    C      0.86605193      1.84973844      5.52570905
    N      0.05862554      1.35235484      6.17019623
    C     -4.91914366     -2.83020929      1.77135010
    H     -4.78957453     -2.21941410      2.64028120
    H     -3.97939831     -3.26044366      1.49444548
    H     -5.61948948     -3.61043849      1.98502561
    C     -5.45018363     -1.96713358      0.61173945
    N     -5.84556703     -1.32453447     -0.25164338
    C     -0.70932042      6.55699495      0.68955900
    H     -0.83161174      7.59724257      0.90825951
    H     -1.66891176      6.11019068      0.53319566
    H     -0.11581741      6.44560571     -0.19375618
    C     -0.00641757      5.86319616      1.87115573
    N      0.51692556      5.34663143      2.75090820
    C     -1.60340897     -0.79090119      0.67138952
    H     -2.10059265      0.03122017      0.20040645
    H     -2.31941436     -1.38602173      1.19871002
    H     -1.12083254     -1.38953912     -0.07268823
    C     -0.55187105     -0.25602058      1.66122322
    N      0.23104672      0.14222234      2.39819940
