120
Energy:   -588.87014498
    C      4.26137523     -2.57189135      1.00965086
    H      4.89660669     -2.86223417      1.82025694
    H      4.61384884     -3.01758144      0.10299669
    H      3.26205474     -2.90126890      1.20399095
    C      4.27809278     -1.03849396      0.86818359
    N      4.29053976      0.10319009      0.76285477
    C      1.37402469     -2.22687559     -4.07061125
    H      1.36172233     -2.60568054     -3.06998362
    H      2.25032643     -2.57813680     -4.57420822
    H      0.50314655     -2.56652391     -4.59129291
    C      1.38392496     -0.68728368     -4.03657142
    N      1.39129616      0.45901249     -4.01122722
    C      1.50309941      5.28942842      2.84710858
    H      1.24404420      4.40113273      3.38443655
    H      0.89169131      6.10066936      3.18321475
    H      2.53278442      5.52338367      3.02006176
    C      1.27393877      5.06360857      1.34109039
    N      1.10331826      4.89547544      0.21979139
    C     -1.60842763     -0.60633689     -2.36986385
    H     -0.93270986     -1.43475689     -2.32485316
    H     -1.12175658      0.22610486     -2.83364301
    H     -2.47026005     -0.87972016     -2.94205750
    C     -2.04100497     -0.21865695     -0.94361663
    N     -2.36307846      0.06998839      0.11828925
    C      2.26046139     -5.01846851     -1.19635910
    H      2.54097945     -4.01123401     -1.42371007
    H      1.57053289     -5.37171333     -1.93400119
    H      3.13151155     -5.63989480     -1.19610648
    C      1.59604409     -5.06533550      0.19214843
    N      1.10135521     -5.10023011      1.22595539
    C      1.35925683      1.46567777     -0.59180775
    H      0.49645738      1.17017063     -1.15140834
    H      2.14042806      0.74875763     -0.73566920
    H      1.69037324      2.42616492     -0.92755387
    C      1.00017972      1.54043286      0.90387781
    N      0.73283048      1.59609143      2.01748369
    C     -4.05422729     -3.02528521     -4.57759568
    H     -4.19607186     -2.08788587     -5.07364284
    H     -4.71317217     -3.75526285     -4.99928677
    H     -3.04081872     -3.34514111     -4.70247308
    C     -4.36024042     -2.86346370     -3.07700588
    N     -4.58808111     -2.74298023     -1.95974856
    C      0.67920112     -4.11875877      4.78534533
    H     -0.01496150     -3.34109647      5.02675739
    H      0.83548345     -4.73678039      5.64471964
    H      0.28648216     -4.71194121      3.98609224
    C      2.01857076     -3.49478164      4.35136204
    N      3.01579234     -3.03020230      4.02824176
    C      0.11931531      2.19565069      5.44823985
    H      0.94757039      2.53243545      6.03600660
    H     -0.79436086      2.52192420      5.89950534
    H      0.19423318      2.60128713      4.46094785
    C      0.13443215      0.65752648      5.37377246
    N      0.14568733     -0.48767691      5.31832811
    C      4.48733955      3.46578488      0.91808649
    H      3.61846335      3.03966159      1.37456571
    H      4.66114973      4.44081146      1.32307080
    H      5.33478237      2.84231520      1.11308730
    C      4.26803047      3.57310493     -0.60243511
    N      4.10474489      3.65300958     -1.73453255
    C      4.75047181      0.48656142     -2.70952296
    H      5.29331912      0.84292450     -1.85909817
    H      3.80205515      0.97942645     -2.75941287
    H      5.30688904      0.69282887     -3.59988957
    C      4.53336323     -1.03256589     -2.58023222
    N      4.37171603     -2.16362522     -2.48396938
    C     -0.09691108     -1.76973519      2.09086800
    H     -0.43903638     -2.74836513      2.35569607
    H     -0.92355801     -1.09035932      2.09240332
    H      0.63431221     -1.44334618      2.80057344
    C      0.53283345     -1.80878931      0.68605606
    N      1.00170688     -1.83786688     -0.35989029
    C     -2.13016618     -4.16497846     -0.12483144
    H     -2.16173607     -3.15146864      0.21678438
    H     -1.56570715     -4.75656689      0.56531944
    H     -3.12631455     -4.54964353     -0.19280428
    C     -1.46341801     -4.21859979     -1.51197657
    N     -0.96699369     -4.25852332     -2.54476918
    C     -4.85526174      1.93524706     -1.64670753
    H     -4.08485961      2.67607641     -1.59618410
    H     -4.77448627      1.27874384     -0.80564989
    H     -5.81199916      2.41421329     -1.63470985
    C     -4.70333423      1.12452568     -2.94718778
    N     -4.59021729      0.52090676     -3.91545444
    C     -2.88160902      0.89558522      3.50089926
    H     -2.75928383      1.57417457      4.31910046
    H     -1.99078463      0.88721660      2.90822653
    H     -3.06821356     -0.08813197      3.87822980
    C     -4.07121811      1.34678655      2.63323138
    N     -4.95693616      1.68272646      1.98721320
    C     -5.44973530     -1.57224300      1.01379226
    H     -6.13675594     -1.00833137      1.60953254
    H     -5.96441554     -2.38948194      0.55322319
    H     -5.03272511     -0.94131314      0.25687146
    C     -4.32036527     -2.11570938      1.90864847
    N     -3.47949795     -2.52034480      2.57490959
    C      3.39701055      0.25571129      4.06026577
    H      4.35614205     -0.11956277      3.77020315
    H      2.66531282     -0.03845837      3.33709102
    H      3.13270103     -0.14273933      5.01748919
    C      3.45008417      1.79268360      4.14088414
    N      3.48959989      2.93702934      4.20090817
    C     -1.69770702      1.48195529     -5.79548985
    H     -0.73073560      1.89357526     -5.59440417
    H     -2.37679867      1.77179342     -5.02106911
    H     -2.05247579      1.84783939     -6.73632301
    C     -1.60143670     -0.05422232     -5.84539351
    N     -1.52975907     -1.19797637     -5.88254905
    C      0.94986537      4.00608220     -3.29660017
    H      1.32133019      4.61304425     -2.49753125
    H      0.82297626      4.60777605     -4.17225008
    H      1.64688607      3.22055140     -3.50154548
    C     -0.40533202      3.39709730     -2.89141203
    N     -1.41433807      2.94368035     -2.58973104
    C     -2.16378081      3.66365556      0.65285556
    H     -3.21900990      3.60419364      0.48595425
    H     -1.70880213      2.73003523      0.39547147
    H     -1.74992386      4.44148225      0.04572530
    C     -1.89551311      3.97346321      2.13732572
    N     -1.69577562      4.20412909      3.24258123
