120
Energy:   -588.85967346
    C      5.12147928     -0.59975660     -3.87750035
    H      6.12422444     -0.87586751     -4.12882698
    H      4.91276659      0.37602417     -4.26375155
    H      4.43965482     -1.30552551     -4.30400328
    C      4.95998331     -0.59097852     -2.34601675
    N      4.83974223     -0.58444283     -1.20575760
    C      1.76084326      3.69336579     -5.28029568
    H      2.57279618      3.00570666     -5.39324505
    H      1.90003024      4.26599335     -4.38719783
    H      1.72999526      4.35052275     -6.12415125
    C      0.43630851      2.91310910     -5.18860490
    N     -0.54986782      2.33217253     -5.12033695
    C      0.43721793      1.28238476      3.25427874
    H     -0.39491272      1.10726972      2.60482245
    H      0.45976156      0.53090531      4.01563905
    H      1.34493713      1.24475625      2.68900974
    C      0.29598070      2.67014754      3.90678659
    N      0.19082316      3.70340002      4.39260835
    C     -4.43294569     -2.04545672      4.46248830
    H     -4.21876705     -2.63043387      5.33244774
    H     -4.66573330     -2.69477416      3.64450548
    H     -5.26812156     -1.40619504      4.65927468
    C     -3.20413160     -1.18905261      4.10445490
    N     -2.28922365     -0.55142083      3.83788275
    C     -0.76641059     -4.32598233     -3.68489670
    H      0.14545786     -4.79129376     -3.99615444
    H     -0.75121137     -3.29204728     -3.95993556
    H     -1.59399898     -4.80945462     -4.16055529
    C     -0.90958664     -4.44853682     -2.15647234
    N     -1.01618773     -4.53978421     -1.01849093
    C      1.64374824      0.93127628     -2.62333391
    H      2.32084450      0.18722641     -2.98779328
    H      1.96096862      1.89680844     -2.95802474
    H      0.66021958      0.73069202     -2.99392321
    C      1.62822157      0.90119866     -1.08370594
    N      1.61666127      0.87880452      0.06261706
    C     -1.43011617     -5.04056568      2.22223839
    H     -0.63098770     -4.44296129      1.83602231
    H     -2.30562849     -4.89460431      1.62468291
    H     -1.14852362     -6.07251979      2.19624895
    C     -1.72546383     -4.62550130      3.67554198
    N     -1.94536359     -4.31646700      4.75759256
    C      2.15519463     -2.82045205     -0.41140207
    H      1.79492067     -1.92202264      0.04458855
    H      3.16238533     -3.00032102     -0.09817190
    H      1.53758378     -3.64278796     -0.11607249
    C      2.11301600     -2.67109266     -1.94356158
    N      2.08161208     -2.55988781     -3.08432397
    C      3.51955172      3.46928807      5.50344737
    H      2.68902880      4.11406001      5.70194425
    H      4.40279294      3.87826988      5.94787724
    H      3.32696923      2.50176538      5.91782754
    C      3.72085194      3.34517958      3.98171306
    N      3.87072911      3.25277516      2.84871270
    C      4.74415119      2.88284250     -0.37429680
    H      5.44192489      2.12420711     -0.08709581
    H      3.79334277      2.68066493      0.07290189
    H      5.09825917      3.83682536     -0.04350483
    C      4.59868101      2.89267274     -1.90737925
    N      4.49037185      2.89999180     -3.04882882
    C      0.25041930     -1.08775430     -5.65254101
    H      0.34173995     -2.09205686     -6.01022395
    H     -0.52134933     -0.58424603     -6.19637159
    H      0.00282611     -1.10097706     -4.61166549
    C      1.58610723     -0.34795267     -5.85311848
    N      2.58058760      0.20286327     -6.00245752
    C      1.20572587      4.35627856      0.95116234
    H      1.84934607      5.15253633      1.26201082
    H      1.58375827      3.42658459      1.32218755
    H      0.22188238      4.52116367      1.33815586
    C      1.15130892      4.31101556     -0.58721020
    N      1.11079302      4.27731520     -1.73259848
    C     -1.18903194     -1.20597435      0.67241917
    H     -1.35759751     -2.22265897      0.96023548
    H     -1.97548825     -0.59115877      1.05762997
    H     -0.25131945     -0.87438941      1.06693891
    C     -1.16411930     -1.10481763     -0.86405298
    N     -1.14557070     -1.02950185     -2.00802634
    C     -3.25515838      0.18874472     -4.58522451
    H     -3.18003425      0.68264250     -5.53143883
    H     -2.42267160      0.46417670     -3.97203443
    H     -4.16502057      0.47891161     -4.10267600
    C     -3.25191823     -1.33614115     -4.80042807
    N     -3.24950579     -2.47148800     -4.96065690
    C      0.58591221     -2.12760775      5.40288083
    H      0.43374959     -3.07087457      5.88453883
    H     -0.30533480     -1.54041588      5.47893063
    H      1.39458864     -1.61149270      5.87676559
    C      0.92375313     -2.35794628      3.91815605
    N      1.17529106     -2.52944378      2.81271096
    C     -4.86189315      0.48238184      1.28714922
    H     -5.22521166     -0.44440145      1.67954261
    H     -5.57573403      1.25573226      1.48017620
    H     -3.93291177      0.72904694      1.75730773
    C     -4.64862721      0.34819688     -0.23209797
    N     -4.48984102      0.24829008     -1.36324656
    C      4.06853567     -0.34466211      2.12143836
    H      3.34422256     -0.96582037      1.63725542
    H      5.03131394     -0.80793797      2.06370985
    H      4.10183011      0.60869483      1.63677237
    C      3.67740431     -0.15600862      3.59894508
    N      3.38618923     -0.01554752      4.69901600
    C     -4.24606828     -3.22813729     -1.68780955
    H     -3.44470320     -2.67641864     -2.13314169
    H     -5.18096907     -2.85362180     -2.04919267
    H     -4.15291676     -4.26262231     -1.94483607
    C     -4.18794514     -3.07233668     -0.15681384
    N     -4.14466982     -2.95633605      0.98308206
    C     -1.91651050      2.58235075     -1.94155536
    H     -1.53523218      3.53590524     -2.24198979
    H     -2.92568465      2.47848628     -2.28167123
    H     -1.31481247      1.80715349     -2.36808529
    C     -1.87880520      2.47513665     -0.40575477
    N     -1.85073189      2.39531089      0.73771858
    C     -3.21160398      2.93954120      4.20956074
    H     -3.49698453      3.95271715      4.01738211
    H     -2.64635756      2.56507538      3.38181022
    H     -2.61450848      2.89929785      5.09655371
    C     -4.47377502      2.07819490      4.40088980
    N     -5.41351873      1.43688343      4.54334299
