120
Energy:   -588.71989087
    C      5.18934720     -2.85201593      0.39941913
    H      6.16207244     -3.08242959      0.78101489
    H      5.15518964     -3.07289030     -0.64697796
    H      4.45670245     -3.43964357      0.91208329
    C      4.89297155     -1.35675135      0.61838332
    N      4.67230641     -0.24345891      0.78141211
    C      1.11678224     -1.88837818     -4.58511951
    H      2.17429723     -2.04170705     -4.64036885
    H      0.64729880     -2.32960612     -5.43940419
    H      0.73647956     -2.34329230     -3.69443320
    C      0.81780741     -0.37792190     -4.55799288
    N      0.59520707      0.74668147     -4.53779587
    C      1.48509432      4.94470929      2.12162239
    H      2.13227125      5.31451200      2.88928648
    H      0.51072791      5.37050839      2.24080428
    H      1.87757616      5.21473231      1.16352811
    C      1.39112195      3.41100338      2.22416687
    N      1.32115525      2.26908961      2.30051590
    C     -1.88066221     -0.63899643     -2.35404131
    H     -1.20247168     -1.44463294     -2.54353430
    H     -1.52726216      0.24646092     -2.83981160
    H     -2.84901108     -0.89134817     -2.73287920
    C     -1.97168315     -0.39068047     -0.83692089
    N     -2.03945238     -0.20579795      0.29264423
    C      2.41257889     -4.51949812     -1.95750837
    H      2.54200103     -3.51163841     -2.29272308
    H      1.62363316     -4.98168484     -2.51324855
    H      3.32107239     -5.06460015     -2.10718281
    C      2.05424773     -4.52031986     -0.45977739
    N      1.78745388     -4.52093168      0.65535141
    C      0.60795365      2.12901646     -0.99072660
    H      0.05581102      1.58376985     -0.25401442
    H      1.65387003      2.06036003     -0.77568169
    H      0.41502915      1.71621731     -1.95885680
    C      0.17495486      3.60670274     -0.96716150
    N     -0.14743242      4.70690734     -0.94961621
    C     -4.25923393     -3.60647456     -3.65098410
    H     -4.61100226     -2.85568787     -4.32735571
    H     -4.80657525     -4.51242860     -3.80771268
    H     -3.21848969     -3.78390211     -3.82496681
    C     -4.46308224     -3.12778568     -2.20153495
    N     -4.61485657     -2.77138005     -1.12235418
    C      1.26619712     -3.89315543      4.18186860
    H      0.75920439     -3.12332806      4.72521414
    H      1.34812547     -4.76695610      4.79396274
    H      0.71308098     -4.12836762      3.29663595
    C      2.67404833     -3.40498103      3.79297180
    N      3.72225754     -3.04151299      3.50342046
    C      0.58778556      3.11569648      5.93851108
    H      0.28355220      3.80378253      6.69935262
    H      0.54706303      2.11797444      6.32294767
    H     -0.06823352      3.20092899      5.09751556
    C      2.02844382      3.43867033      5.50057082
    N      3.10107938      3.67913904      5.17450439
    C      5.20338939      3.06386386      1.93296523
    H      5.59378743      2.06766060      1.92468066
    H      4.54418466      3.18167922      2.76751166
    H      6.00989432      3.76233552      2.01412084
    C      4.42950451      3.32280919      0.62696006
    N      3.85331203      3.51560577     -0.34542015
    C      3.87588176      0.82040055     -2.49517034
    H      3.57894807      0.92302938     -1.47233219
    H      3.07352668      1.12915862     -3.13218987
    H      4.73404747      1.43203334     -2.68052418
    C      4.22291935     -0.65198566     -2.78369029
    N      4.48130460     -1.74824412     -2.99850651
    C      1.23039457     -1.13679374      1.46253942
    H      2.22084085     -1.09364097      1.86509895
    H      0.73958827     -2.01917508      1.81667420
    H      0.68070829     -0.27337721      1.77439835
    C      1.30242394     -1.17160636     -0.07538121
    N      1.35605308     -1.19752594     -1.22043302
    C     -1.65985614     -3.86470251      0.61570967
    H     -2.68690366     -4.12577802      0.76374062
    H     -1.49781479     -2.85745160      0.93833529
    H     -1.03849863     -4.52539115      1.18342832
    C     -1.30918359     -3.98773976     -0.87877706
    N     -1.04809194     -4.07934659     -1.99149036
    C     -5.53949878      0.81361566     -1.26313088
    H     -5.91473475      0.04215788     -0.62363807
    H     -6.21165796      1.64604073     -1.25010751
    H     -4.57681711      1.12707691     -0.91688653
    C     -5.41757445      0.27471747     -2.70060199
    N     -5.32679624     -0.12651673     -3.77086457
    C     -1.54233972      0.59151506      3.68280364
    H     -0.87436973      0.89211249      4.46277637
    H     -2.52193901      0.97084899      3.88624919
    H     -1.19655405      0.97994533      2.74768156
    C     -1.59149943     -0.94612976      3.61329307
    N     -1.62810107     -2.09097622      3.56153929
    C     -4.72967710     -1.70893888      2.07190188
    H     -5.59609630     -2.10975097      1.58861354
    H     -4.65311780     -2.11324010      3.05961555
    H     -3.85618109     -1.96907150      1.51133535
    C     -4.85005078     -0.17577832      2.15270340
    N     -4.93967446      0.96572940      2.21286380
    C      3.75743200      0.40919088      4.06614973
    H      4.23072161      1.15710814      4.66741249
    H      3.55886524      0.80699693      3.09289710
    H      4.40280959     -0.43986081      3.97955825
    C      2.43317282     -0.01779523      4.72616525
    N      1.44720167     -0.33570580      5.21757681
    C     -2.84016792      0.78031938     -6.02987020
    H     -3.39664465      1.13147928     -5.18611635
    H     -3.43728645      0.86981775     -6.91323796
    H     -1.95118090      1.36563127     -6.13946569
    C     -2.45932917     -0.69631332     -5.81511984
    N     -2.17577741     -1.79573348     -5.65522844
    C     -1.20613202      3.98661068     -4.26337567
    H     -1.72715615      4.29142283     -5.14684814
    H     -0.37461636      3.37017729     -4.53446728
    H     -0.85371421      4.85132062     -3.74090320
    C     -2.16022766      3.19057499     -3.35363467
    N     -2.87059522      2.59789023     -2.67629113
    C     -3.02087133      3.37992789      0.75439529
    H     -2.81309050      4.13695606      0.02732194
    H     -4.07598282      3.32911887      0.92485723
    H     -2.67175028      2.43458210      0.39476363
    C     -2.30382064      3.72409209      2.07310273
    N     -1.76994381      3.98033799      3.05494036
