120
Energy:   -588.69889942
    C      4.67458384     -3.46117129      0.59811723
    H      5.61751395     -3.77793771      0.99237860
    H      4.61580197     -3.72115395     -0.43815146
    H      3.88386783     -3.94489650      1.13260503
    C      4.54011103     -1.93487836      0.75286523
    N      4.43998991     -0.79848389      0.86808215
    C      0.82787460     -1.84128137     -4.49568032
    H      1.81174406     -2.24584656     -4.61069370
    H      0.24201328     -2.07718226     -5.35940271
    H      0.36800998     -2.26337812     -3.62662453
    C      0.91690185     -0.31198245     -4.33782284
    N      0.98318669      0.82665010     -4.22029077
    C      2.03586028      5.53747461      1.24580317
    H      2.14820213      4.54696186      1.63460129
    H      1.66925881      6.18349365      2.01597318
    H      2.98371812      5.89511319      0.90147880
    C      1.03759558      5.51855579      0.07332304
    N      0.29434213      5.50446987     -0.79964172
    C     -2.06503494     -0.13956890     -2.31556948
    H     -1.96544338     -1.16967383     -2.58735165
    H     -1.28657822      0.42876664     -2.78021874
    H     -3.01647220      0.22510164     -2.64219100
    C     -1.95940947      0.00018108     -0.78556517
    N     -1.88076651      0.10423129      0.35359259
    C      1.86166148     -4.82953706     -2.01939383
    H      1.84039870     -3.80943108     -2.34162333
    H      1.13010143     -5.39048126     -2.56258863
    H      2.83285380     -5.24056341     -2.20034110
    C      1.54737211     -4.89881625     -0.51339828
    N      1.31336938     -4.95039775      0.60788385
    C      0.82231691      2.09531726     -0.79004935
    H      0.81965647      1.16962378     -1.32669140
    H      1.47999414      2.78650057     -1.27443080
    H     -0.16831357      2.49927236     -0.77079806
    C      1.30535062      1.85144278      0.65175635
    N      1.66499117      1.66986714      1.72524623
    C     -4.46650883     -2.98166078     -3.87786441
    H     -3.47650161     -2.95283443     -4.28277790
    H     -5.09570050     -3.56696355     -4.51538900
    H     -4.44022510     -3.42045994     -2.90233197
    C     -5.02364341     -1.54920537     -3.78157016
    N     -5.43845542     -0.48267721     -3.70987471
    C      0.89257994     -4.14100684      4.39755746
    H      0.34633767     -3.28247740      4.72838484
    H      0.91123655     -4.87395978      5.17687192
    H      0.41859698     -4.55333496      3.53140230
    C      2.33409264     -3.72829815      4.04639841
    N      3.40736437     -3.42101778      3.78494454
    C      1.23227904      3.27778216      4.82355987
    H      0.64979614      4.17531586      4.83042416
    H      1.25518721      2.85991458      5.80832430
    H      0.79437731      2.57356019      4.14738491
    C      2.66790207      3.60097531      4.36954145
    N      3.73678866      3.84160730      4.03150410
    C      5.23010855      2.46762634      1.34408686
    H      4.49293601      2.02597826      1.98160063
    H      5.75246166      3.23272539      1.87950237
    H      5.92368512      1.71692217      1.02739474
    C      4.54105495      3.08255263      0.11174325
    N      4.02802322      3.54039321     -0.80579259
    C      3.91472926      0.33126053     -2.26178631
    H      3.25777313      0.46451801     -1.42778915
    H      3.52814062      0.85935694     -3.10828645
    H      4.88427279      0.71163564     -2.01643104
    C      4.02123592     -1.16805320     -2.59692013
    N      4.10053496     -2.28436042     -2.84644249
    C      0.86466913     -1.62912634      1.65288184
    H      0.43729047     -2.57042732      1.92892553
    H      0.23679211     -0.83620880      2.00209715
    H      1.83550579     -1.53544913      2.09288167
    C      0.98616962     -1.55039009      0.11970271
    N      1.07663226     -1.49176738     -1.02181884
    C     -2.04643820     -3.73321383      0.16978596
    H     -1.96192796     -2.71655579      0.49253142
    H     -1.36698816     -4.34242670      0.72845081
    H     -3.04725595     -4.07621054      0.32983648
    C     -1.70553988     -3.82597159     -1.32914177
    N     -1.45172559     -3.89503396     -2.44516160
    C     -5.52924902      0.56387478     -0.26171236
    H     -5.80323068      0.89542451     -1.24146182
    H     -4.68140593      1.12056784      0.07910141
    H     -6.34908200      0.71649783      0.40871972
    C     -5.17523322     -0.93419661     -0.30704370
    N     -4.91165236     -2.04957885     -0.34079495
    C     -1.60951960      0.92759170      3.68593209
    H     -1.49169539     -0.09731071      3.96982062
    H     -1.41809963      1.55592316      4.53059596
    H     -0.91910082      1.16244513      2.90294750
    C     -3.04828956      1.16034444      3.18857188
    N     -4.11951919      1.33363943      2.81826459
    C     -4.71663582     -2.23690568      3.10110959
    H     -5.18774840     -2.28685060      4.06051493
    H     -5.14758136     -2.97157899      2.45346758
    H     -4.86226928     -1.26301262      2.68251397
    C     -3.20874047     -2.50932043      3.25486847
    N     -2.08604383     -2.71214560      3.36934895
    C      3.64816791      0.05036151      4.18913438
    H      4.09299867      0.86032710      4.72856139
    H      3.59590382      0.29996333      3.14996813
    H      4.24209598     -0.83073853      4.31487726
    C      2.22835042     -0.20649858      4.72741050
    N      1.17123176     -0.39774258      5.12818153
    C     -3.35147407      1.61613304     -5.69143962
    H     -2.59711852      2.36360968     -5.82230810
    H     -3.83735671      1.76089576     -4.74917591
    H     -4.07109928      1.69384813     -6.47947453
    C     -2.70215085      0.22012124     -5.72506110
    N     -2.21870019     -0.81927300     -5.75009381
    C      0.22854255      4.18025878     -3.95025755
    H      0.98623315      4.21491258     -3.19553625
    H      0.03046265      5.17099215     -4.30255122
    H      0.56380494      3.57251640     -4.76459619
    C     -1.05940806      3.57916141     -3.35741257
    N     -2.01834583      3.13161709     -2.91601253
    C     -2.72248343      3.76774015      0.39789817
    H     -2.51859936      4.48513486     -0.36935427
    H     -3.71621422      3.91302101      0.76707520
    H     -2.63213528      2.78022476     -0.00403425
    C     -1.71572661      3.94741647      1.54931343
    N     -0.96615039      4.08119367      2.40659444
