120
Energy:   -588.57458478
    C      4.90419115     -3.07836165      0.45191763
    H      5.82625755     -3.40523710      0.88532986
    H      4.93298048     -3.23296233     -0.60646269
    H      4.09452152     -3.63758273      0.87216275
    C      4.70098834     -1.58053293      0.74656618
    N      4.54969462     -0.46533137      0.96594541
    C      1.15321935     -1.63479490     -4.53658343
    H      2.18747560     -1.88511601     -4.64862598
    H      0.62045486     -1.91558162     -5.42101541
    H      0.74874761     -2.15790700     -3.69536085
    C      1.01358278     -0.11750356     -4.31313630
    N      0.90961700      1.01218881     -4.14676976
    C      1.55936620      5.43845045      1.98142788
    H      1.16423265      6.02919534      2.78129670
    H      2.50487328      5.83653388      1.67738012
    H      1.68726843      4.42916143      2.31290305
    C      0.58315439      5.46789862      0.79073761
    N     -0.14367967      5.48982411     -0.09578542
    C     -1.88238989     -0.27777471     -2.24857789
    H     -1.30752130     -1.15745259     -2.45005523
    H     -1.39406398      0.57303822     -2.67584158
    H     -2.85693487     -0.38250842     -2.67775387
    C     -2.00997914     -0.08549216     -0.72596553
    N     -2.10497514      0.05767093      0.40768858
    C      2.30759872     -4.59198695     -2.16567826
    H      2.49255094     -3.55800810     -2.36959149
    H      1.53002338     -4.94873145     -2.80833605
    H      3.20060953     -5.15513935     -2.33971897
    C      1.87526424     -4.75617995     -0.69675772
    N      1.55337157     -4.87842911      0.39692039
    C      0.66854018      2.18678652     -0.52729892
    H      0.75904192      1.32922656     -1.16078178
    H      1.23194820      2.99690207     -0.94104194
    H     -0.36095066      2.46907402     -0.45407679
    C      1.20909712      1.84878742      0.87454087
    N      1.61156634      1.59713173      1.91827432
    C     -4.22557421     -3.16426045     -4.11954152
    H     -4.53210761     -2.39156289     -4.79324467
    H     -4.80766053     -4.04425815     -4.29752649
    H     -3.19011183     -3.38384952     -4.27605793
    C     -4.43691824     -2.69378352     -2.66847806
    N     -4.59427348     -2.34349206     -1.58809536
    C      1.06780255     -4.47691134      4.05941512
    H      0.48534396     -3.70951016      4.52496598
    H      1.14355619     -5.31649780      4.71839544
    H      0.59549777     -4.78002214      3.14839859
    C      2.47684724     -3.93676457      3.75211309
    N      3.52594506     -3.53460075      3.52331277
    C      0.77299365      2.64926876      5.16570275
    H      0.11360906      3.48577553      5.26752896
    H      0.77503417      2.08405971      6.07423655
    H      0.43996874      2.02857994      4.36025947
    C      2.19838718      3.15213168      4.87077535
    N      3.25965745      3.52653597      4.65118849
    C      5.01152967      2.84028287      1.77112069
    H      4.31688372      2.27756825      2.35909981
    H      5.42452034      3.62892940      2.36473205
    H      5.79802503      2.19703484      1.43562684
    C      4.28493607      3.44090716      0.55337187
    N      3.74395411      3.88809924     -0.35329748
    C      3.90704908      0.85300416     -2.08703943
    H      3.33170070      0.84718697     -1.18490830
    H      3.36498228      1.36796412     -2.85246671
    H      4.83815568      1.35066201     -1.91303866
    C      4.17519467     -0.59603867     -2.53422262
    N      4.37484124     -1.67491693     -2.86717083
    C      1.00837245     -1.65394270      1.53623064
    H      0.58158277     -2.61687991      1.72465219
    H      0.36601069     -0.89540794      1.93233100
    H      1.96733712     -1.59060420      2.00662844
    C      1.16695929     -1.45091567      0.01793218
    N      1.28503441     -1.29975283     -1.11251005
    C     -1.88138070     -3.77918234      0.24803194
    H     -1.89531371     -2.76350973      0.58435799
    H     -1.21156415     -4.34791792      0.85859293
    H     -2.86605369     -4.19186890      0.31879913
    C     -1.40816884     -3.82847748     -1.21663202
    N     -1.05584110     -3.86517996     -2.30714092
    C     -5.43738305      1.36611230     -1.43098870
    H     -4.90158428      0.73384077     -0.75419288
    H     -6.46497844      1.41400000     -1.13661891
    H     -5.01461159      2.34885473     -1.41147692
    C     -5.33803823      0.79277268     -2.85682609
    N     -5.26407149      0.36589527     -3.91842685
    C     -1.76107285      0.11054719      3.92763587
    H     -2.74642357      0.49445035      4.09073862
    H     -1.31186641      0.62054042      3.10118589
    H     -1.16888153      0.26340218      4.80561303
    C     -1.84173882     -1.39599499      3.61872867
    N     -1.90179830     -2.51768412      3.38873322
    C     -4.96218038     -2.08992985      1.75711705
    H     -5.89016318     -2.44057869      1.35612641
    H     -4.60646930     -2.78239946      2.49118418
    H     -4.24297166     -2.00426722      0.96952589
    C     -5.17366017     -0.71190673      2.41127955
    N     -5.33111648      0.31409412      2.89833327
    C      3.73077679     -0.10094305      4.32140888
    H      4.11186022      0.59668718      5.03764046
    H      3.65701895      0.37384671      3.36535786
    H      4.39217201     -0.93927888      4.25322915
    C      2.33654050     -0.58177534      4.76469826
    N      1.29846820     -0.93977683      5.09474735
    C     -2.52689556      1.51222129     -5.80411551
    H     -1.60528023      2.04666469     -5.70463885
    H     -3.18228566      1.77892774     -5.00147575
    H     -2.98572672      1.76312360     -6.73761489
    C     -2.24968651     -0.00195010     -5.75894742
    N     -2.04329178     -1.12931952     -5.72531773
    C     -0.26018522      4.30156806     -3.38523917
    H     -0.06879775      5.13664957     -2.74421664
    H     -0.39523299      4.64616489     -4.38918848
    H      0.56898819      3.62627865     -3.34843209
    C     -1.53466441      3.57562375     -2.91586974
    N     -2.48357210      3.03512522     -2.56640287
    C     -3.11644205      3.56305530      0.75854564
    H     -4.10137425      3.69811848      1.15423074
    H     -3.07615451      2.64703829      0.20701247
    H     -2.87718638      4.38029825      0.11064922
    C     -2.10120743      3.51082599      1.91533896
    N     -1.34531911      3.47193889      2.77662416
