120
Energy:   -588.55459888
    C      4.74008893     -2.68457847      0.76750485
    H      5.69746997     -3.15794910      0.83263527
    H      4.32728372     -2.84722771     -0.20616664
    H      4.08618197     -3.09928015      1.50596764
    C      4.89744432     -1.17232218      1.01229087
    N      5.01460256     -0.04637863      1.19454519
    C      2.45383599     -1.30341921     -5.52168048
    H      2.52734665     -0.43593126     -4.89961856
    H      2.67816402     -1.03688523     -6.53337987
    H      3.14944241     -2.04356901     -5.18521493
    C      1.02401510     -1.87030165     -5.44515252
    N     -0.04055154     -2.29237140     -5.38817397
    C      0.55940231      5.63394757      1.71225784
    H      0.34858682      6.66471873      1.90711122
    H      0.52399755      5.45579859      0.65778710
    H      1.53413488      5.39314066      2.08213286
    C     -0.48911274      4.75338936      2.41712198
    N     -1.26977985      4.09777375      2.94192537
    C     -1.05508274     -1.22412132     -2.41702543
    H     -1.86553312     -1.11524553     -3.10710979
    H     -0.60910526     -2.18894434     -2.53998772
    H     -0.32312477     -0.46639634     -2.60408021
    C     -1.58398746     -1.08275445     -0.97762444
    N     -1.97778107     -0.97750039      0.09407502
    C      1.94697826     -3.97944092     -2.48105566
    H      1.87952713     -2.91301854     -2.53667789
    H      1.12069140     -4.41671654     -3.00157380
    H      2.86280819     -4.30279722     -2.93004935
    C      1.91518236     -4.41955138     -1.00562629
    N      1.89150886     -4.74723361      0.09289794
    C     -0.06584156      1.97519238     -0.09602725
    H      0.39468873      1.38293617     -0.85894574
    H      0.01314283      3.01105187     -0.35226089
    H     -1.09805129      1.70665378     -0.01041660
    C      0.64327226      1.72322968      1.24757699
    N      1.17123974      1.53563199      2.24795143
    C     -3.35886320     -3.76410338     -4.26478309
    H     -3.85205659     -3.34974553     -5.11916476
    H     -3.44279486     -4.83057729     -4.28687294
    H     -2.32541434     -3.48726675     -4.28040443
    C     -4.01562954     -3.22398057     -2.98083398
    N     -4.50462193     -2.82183458     -2.02487551
    C      0.41568366     -3.10854270      5.58658802
    H     -0.42852317     -3.43034971      5.01330341
    H      0.33348032     -3.48514981      6.58474070
    H      1.31361461     -3.47948972      5.13823837
    C      0.45667254     -1.56945929      5.62038399
    N      0.48719061     -0.42354173      5.64554664
    C      0.67620602      2.94893100      5.49402474
    H     -0.08379809      3.64651259      5.77805619
    H      1.03629733      2.44007048      6.36367658
    H      0.26817682      2.23684651      4.80747763
    C      1.83904059      3.70218442      4.82169667
    N      2.70482379      4.26301584      4.32111786
    C      4.27414789      3.23307811      1.51543652
    H      4.49288949      4.09870695      2.10513052
    H      5.18642430      2.81331404      1.14604653
    H      3.76709223      2.50933591      2.11875309
    C      3.37610693      3.63301460      0.33003649
    N      2.70747461      3.93078549     -0.55254772
    C      3.92935480      0.94989517     -1.97003438
    H      2.98265744      0.99725403     -1.47362584
    H      3.91162013      1.58228176     -2.83297805
    H      4.69872817      1.27835833     -1.30289447
    C      4.21009395     -0.50117414     -2.40268134
    N      4.41911700     -1.58156120     -2.72480666
    C      0.94555201     -1.97564762      2.04709681
    H      1.52016281     -2.83922373      2.30969712
    H     -0.09400969     -2.22880325      2.03601570
    H      1.11647669     -1.20148492      2.76567593
    C      1.36873072     -1.48260343      0.65087792
    N      1.68380651     -1.11550962     -0.38867052
    C     -1.71967052     -4.51211426      1.00401242
    H     -2.02148209     -3.51928287      1.26496414
    H     -0.79956807     -4.74646974      1.49735619
    H     -2.47474849     -5.20619713      1.30898013
    C     -1.52279901     -4.60479224     -0.52053748
    N     -1.37621922     -4.67379522     -1.65563418
    C     -4.95163565      0.65308378     -2.11415440
    H     -4.79432774     -0.21781437     -1.51274705
    H     -5.38130001      0.36654806     -3.05126961
    H     -5.61548334      1.32163208     -1.60695768
    C     -3.60419915      1.35671482     -2.36097062
    N     -2.60097143      1.88060011     -2.54473651
    C     -2.19242869      0.64976692      3.24389509
    H     -2.98704095      1.13157685      3.77432013
    H     -2.27272658      0.87372739      2.20068225
    H     -1.25201076      1.00227973      3.61301287
    C     -2.28671107     -0.87337253      3.45067292
    N     -2.35690859     -2.00741908      3.60462840
    C     -5.02534018     -2.21894142      1.28877822
    H     -4.91662093     -2.59199024      2.28573103
    H     -4.18279899     -2.51944872      0.70165065
    H     -5.92072532     -2.61367504      0.85591577
    C     -5.10575900     -0.68140005      1.32193468
    N     -5.16563447      0.46336939      1.34662117
    C      3.75970796      0.51628115      4.49218976
    H      2.80391570      0.95818567      4.30223783
    H      4.48019646      0.91810018      3.81076707
    H      4.05930449      0.73232801      5.49641322
    C      3.66717425     -1.00899875      4.30098637
    N      3.59827871     -2.14463897      4.15862676
    C     -1.66816842      0.85523739     -5.82440713
    H     -0.83185943      0.41581058     -5.32202129
    H     -1.79143627      1.86576642     -5.49496031
    H     -1.49662263      0.84280533     -6.88049263
    C     -2.94131461      0.05116855     -5.50165012
    N     -3.88922981     -0.54749725     -5.26134285
    C      0.17727544      4.04079208     -3.19768872
    H     -0.87746459      3.98632493     -3.02605838
    H      0.37198418      4.70448997     -4.01407877
    H      0.66349830      4.40605956     -2.31731034
    C      0.71528112      2.63824060     -3.53680410
    N      1.11585081      1.59397727     -3.78929091
    C     -3.75016472      3.45327458      0.57857642
    H     -3.44753496      2.43244797      0.47261201
    H     -4.71971690      3.58465421      0.14544012
    H     -3.78583889      3.70875425      1.61701591
    C     -2.73894905      4.36571519     -0.14009944
    N     -1.98605302      5.04506871     -0.67518628
