120
Energy:   -588.50978320
    C      5.21740476     -2.53649301     -0.79347759
    H      5.96875475     -2.49479433     -1.55415794
    H      4.26841357     -2.74704936     -1.24066977
    H      5.46095129     -3.30827668     -0.09352464
    C      5.15133527     -1.18267024     -0.06245180
    N      5.10214354     -0.17468764      0.48183013
    C      1.52906274     -1.81596015     -4.33683123
    H      1.93432255     -2.03631309     -5.30228928
    H      0.64527045     -2.39827782     -4.17961668
    H      2.25139789     -2.05366262     -3.58408389
    C      1.17816851     -0.31859796     -4.25695810
    N      0.91691182      0.79625626     -4.19748893
    C      1.28336372      5.60468094      1.67592202
    H      0.73524217      6.10838559      2.44452112
    H      2.17095308      6.15783449      1.44985709
    H      1.54989841      4.62438862      2.01190612
    C      0.41117156      5.49448310      0.41151019
    N     -0.23821515      5.41243580     -0.52990189
    C     -1.61205884     -0.67683507     -2.15301137
    H     -0.87218561     -1.44628999     -2.22667896
    H     -1.27210240      0.19561044     -2.67086034
    H     -2.52649617     -1.01816426     -2.59141511
    C     -1.85010058     -0.33380505     -0.67069341
    N     -2.02733347     -0.07840360      0.43295968
    C      1.96101531     -5.19574351     -0.26127712
    H      1.67284238     -4.44863317     -0.97098317
    H      1.08602795     -5.66361753      0.13921022
    H      2.56918019     -5.93137619     -0.74488764
    C      2.75979525     -4.53887275      0.87980631
    N      3.35452323     -4.04980261      1.72939480
    C      0.64256398      2.13388972     -0.74555030
    H      0.80299375      1.25045379     -1.32753261
    H      1.16817621      2.95355641     -1.18914628
    H     -0.40373472      2.35575873     -0.71501736
    C      1.16106526      1.90634386      0.68657376
    N      1.54711303      1.73692562      1.75285521
    C     -3.92032182     -3.56826002     -3.53477860
    H     -2.85767484     -3.68814544     -3.49859760
    H     -4.17546836     -2.88200760     -4.31507146
    H     -4.37969012     -4.51508155     -3.72819225
    C     -4.42137276     -3.02068892     -2.18544030
    N     -4.79442795     -2.61299735     -1.18079660
    C      0.95083724     -3.85923117      4.66447325
    H      0.30400790     -3.02551601      4.84176121
    H      1.92710720     -3.50483935      4.40717480
    H      1.01058969     -4.45867055      5.54878155
    C      0.39068915     -4.70647396      3.50688362
    N     -0.02636656     -5.33728473      2.64500551
    C      0.93245040      3.07362124      4.95593516
    H      0.40289298      3.99789565      5.05686056
    H      0.86036548      2.51976242      5.86859242
    H      0.50529012      2.50312949      4.15782969
    C      2.41315975      3.36158187      4.64580856
    N      3.51561516      3.57598164      4.41490520
    C      5.04057512      3.01602170      1.52197832
    H      4.45167846      2.28580232      2.03664379
    H      5.36848338      3.76254814      2.21485172
    H      5.89153845      2.54102935      1.08022865
    C      4.19145075      3.67618685      0.41981237
    N      3.55923907      4.16770980     -0.40080029
    C      3.91125336      1.45086472     -2.39890895
    H      3.47874378      1.17428577     -1.46011199
    H      3.17632508      1.94685576     -2.99788508
    H      4.73776049      2.10925890     -2.23067654
    C      4.40193960      0.18747762     -3.13012715
    N      4.76727781     -0.75317150     -3.67455234
    C      0.79073082     -1.68913852      1.49663189
    H      1.55911479     -2.02868352      2.15935012
    H      0.01476290     -2.42398451      1.44396077
    H      0.38588829     -0.76848195      1.86186209
    C      1.38431772     -1.46787547      0.09295911
    N      1.82627014     -1.30313508     -0.95213907
    C     -2.82449098     -4.56613527      1.07122256
    H     -2.61977444     -4.02512351      1.97138788
    H     -2.70016222     -5.61395597      1.24874221
    H     -3.83015238     -4.37389876      0.76043429
    C     -1.85066783     -4.11338529     -0.03253735
    N     -1.12561224     -3.77629236     -0.85433678
    C     -5.25744037      1.07849849     -1.55483833
    H     -6.28235382      1.00274942     -1.25698822
    H     -4.98510482      2.11001877     -1.63668172
    H     -4.63749884      0.60285173     -0.82385834
    C     -5.06654282      0.38747696     -2.91779371
    N     -4.92441091     -0.12701997     -3.93257595
    C     -1.70211994      0.56847082      3.79955442
    H     -2.64764521      1.04476135      3.64453996
    H     -1.01562262      0.88335230      3.04161630
    H     -1.31993046      0.83904853      4.76164485
    C     -1.87938078     -0.95965777      3.72883249
    N     -2.01135953     -2.09741897      3.67617680
    C     -4.92903576     -1.47372608      1.95710121
    H     -4.92669218     -1.86061982      2.95470230
    H     -4.02261608     -1.75540439      1.46317836
    H     -5.76551990     -1.87224425      1.42195951
    C     -5.03306385      0.06208885      2.00238518
    N     -5.11051749      1.20557288      2.03610114
    C      3.71992394     -0.13473200      3.66744169
    H      4.28235625      0.66131397      4.10889484
    H      3.54039607      0.08484797      2.63571814
    H      4.27166098     -1.04805746      3.74695223
    C      2.37473648     -0.28196847      4.40255537
    N      1.37318327     -0.39159272      4.94988092
    C     -2.29124599      0.82945951     -5.94713987
    H     -1.37424194      1.37927965     -5.98838990
    H     -2.90814769      1.22281371     -5.16636855
    H     -2.80187948      0.91675938     -6.88337236
    C     -1.98823801     -0.65365566     -5.66402231
    N     -1.76263479     -1.75790231     -5.45322841
    C     -0.38474026      4.10629321     -3.82664779
    H     -0.78927750      4.90939601     -4.40654063
    H      0.21037465      3.47712136     -4.45504266
    H      0.22373170      4.50439184     -3.04167744
    C     -1.53477646      3.28299680     -3.21738616
    N     -2.39103069      2.67001519     -2.76376318
    C     -3.08033580      3.44491801      0.53850306
    H     -4.09402207      3.61034040      0.83846267
    H     -2.97960721      2.45124753      0.15461270
    H     -2.81369886      4.14954947     -0.22129845
    C     -2.15011542      3.62283386      1.75284898
    N     -1.45752406      3.75530030      2.65698471
