120
Energy:   -588.39435737
    C      4.92922827     -2.71071227     -0.07183561
    H      5.92095746     -3.10240844      0.01731320
    H      4.50742846     -3.01702195     -1.00626506
    H      4.32592204     -3.08131691      0.73039433
    C      4.97726608     -1.17270928     -0.00987470
    N      5.01303242     -0.02759614      0.03625803
    C      0.89787098     -2.41419582     -4.92311534
    H      1.86324007     -2.77099166     -5.21579166
    H      0.14892291     -2.86455300     -5.54049229
    H      0.71805615     -2.67041278     -3.89992494
    C      0.84518534     -0.88373525     -5.08594852
    N      0.80595848      0.25576222     -5.20718522
    C      0.23012341      5.53690114     -0.06824917
    H     -0.40468872      5.72658755     -0.90844725
    H      0.73413261      4.60309511     -0.20565407
    H      0.95163685      6.32230134      0.01814521
    C     -0.62005964      5.47748788      1.21442726
    N     -1.25305957      5.43325201      2.16943817
    C     -1.38864224     -0.45174977     -2.49669875
    H     -1.47692828     -1.38454854     -3.01341163
    H     -0.39380066     -0.07430093     -2.60948924
    H     -2.08492860      0.25003967     -2.90605922
    C     -1.69127323     -0.66251354     -1.00150876
    N     -1.91659576     -0.81943675      0.11172815
    C      2.34919136     -4.95770635     -2.36087782
    H      2.69115170     -3.99880562     -2.69022978
    H      1.41556099     -5.18450603     -2.83182933
    H      3.07099176     -5.70297940     -2.62254814
    C      2.16190060     -4.93874846     -0.83242672
    N      2.02245411     -4.92463345      0.30557460
    C     -1.01791330      2.00413657      1.67035855
    H     -1.85233469      2.49461530      1.21420972
    H     -0.67120647      2.58614179      2.49858761
    H     -1.31771630      1.03654661      2.01501333
    C      0.11552528      1.85316738      0.63879406
    N      0.95942182      1.74076396     -0.12925258
    C     -4.32573783     -2.91737445     -3.47953070
    H     -4.60816316     -1.99264145     -3.93779372
    H     -4.95247236     -3.70323997     -3.84629808
    H     -3.30516927     -3.13542891     -3.71573226
    C     -4.48608333     -2.80340420     -1.95214729
    N     -4.60546785     -2.71854816     -0.81494091
    C      2.12055454     -4.33964726      3.83472607
    H      2.62967289     -4.24552709      2.89832868
    H      2.08647795     -5.37031002      4.12015934
    H      2.64241935     -3.77958453      4.58231282
    C      0.68575176     -3.79779673      3.69566148
    N     -0.38252414     -3.39436438      3.59212157
    C      0.89281169      4.08451312      4.81430397
    H     -0.01107488      4.64157058      4.68172856
    H      1.49426502      4.55389473      5.56452654
    H      0.65541402      3.08698372      5.12004328
    C      1.66976605      4.04290476      3.48531538
    N      2.24824388      4.01192544      2.49582297
    C      4.17747937      3.21598204     -0.08072585
    H      3.57046903      2.43701380      0.33115655
    H      4.39962571      3.93499006      0.67991700
    H      5.08916850      2.79820641     -0.45380163
    C      3.41924364      3.90356574     -1.23133753
    N      2.85470267      4.41550306     -2.08802023
    C      3.46563730      0.69275832     -2.95994027
    H      4.30844764      1.23000699     -2.57792617
    H      2.69489262      0.66416705     -2.21829732
    H      3.09827357      1.18264347     -3.83741136
    C      3.89064654     -0.74439907     -3.31426466
    N      4.20708523     -1.81442808     -3.57807527
    C      1.41066991     -1.36736518      1.23825311
    H      1.97993428     -2.12982517      1.72763335
    H      0.39570410     -1.40884338      1.57444212
    H      1.82455786     -0.40848071      1.47092545
    C      1.45645763     -1.59037238     -0.28482643
    N      1.49054868     -1.75641138     -1.41882837
    C     -1.42686188     -4.22117367      0.33495813
    H     -0.97217496     -3.36565611      0.78910535
    H     -0.96299905     -5.11097718      0.70641483
    H     -2.47041274     -4.23783468      0.57080362
    C     -1.24695339     -4.14784800     -1.19273827
    N     -1.11300334     -4.09325370     -2.33017768
    C     -4.82725695      1.04102743     -0.45026156
    H     -5.67862861      1.64115828     -0.20549748
    H     -3.93560131      1.54144165     -0.13492854
    H     -4.90143025      0.09682499      0.04761309
    C     -4.77848160      0.81601052     -1.97295272
    N     -4.74216613      0.64847521     -3.10666550
    C     -1.29586517     -0.42599823      5.36907437
    H     -2.16223189      0.11197229      5.04519693
    H     -1.16064640     -0.28433657      6.42099972
    H     -1.42545070     -1.46799033      5.16326098
    C     -0.05705019      0.09553009      4.61744570
    N      0.86530387      0.48383163      4.05782400
    C     -3.63890882     -2.12958989      2.64825638
    H     -3.87796486     -2.61164177      3.57312306
    H     -2.60894691     -2.29949081      2.41328566
    H     -4.25321883     -2.52913614      1.86858652
    C     -3.89307530     -0.61621458      2.77746391
    N     -4.08231380      0.51056212      2.87366478
    C      4.05183259      1.03387111      3.18588527
    H      3.95326498      1.46076111      4.16207661
    H      3.20844479      1.31103850      2.58857937
    H      4.94817695      1.39585306      2.72715339
    C      4.11747853     -0.50043139      3.30080468
    N      4.16635492     -1.64278933      3.38636740
    C     -2.63872638      1.26019120     -5.89013773
    H     -1.68948104      1.67964917     -6.15069191
    H     -2.93466881      1.61872733     -4.92641111
    H     -3.36817006      1.54920487     -6.61765549
    C     -2.52914037     -0.27550512     -5.85509861
    N     -2.44754860     -1.41890082     -5.82901039
    C      0.03611104      3.03174377     -3.30063470
    H      0.41758715      4.02464909     -3.41688944
    H     -0.25803191      2.64860353     -4.25540304
    H      0.79577243      2.40439408     -2.88320683
    C     -1.18293015      3.05705248     -2.35994450
    N     -2.09056173      3.07589597     -1.65955788
    C     -3.95754039      3.83703604      3.45474241
    H     -3.84466506      3.34091061      2.51345663
    H     -3.78622694      4.88560672      3.32805253
    H     -4.94935816      3.67975369      3.82414579
    C     -2.93908180      3.26829583      4.46016604
    N     -2.18079308      2.84484290      5.20874963
