43
Energy:   -268.36601797
C   -0.64690051   3.49439476  -0.40633123
H   -0.01108741   4.22668952  -0.85842222
H   -0.06581012   2.86385074   0.23370572
H   -1.40398000   3.98551264   0.16858872
C   -1.30870451   2.64110560  -1.50428983
N   -1.80144767   2.00579304  -2.32176992
C   -0.14520667  -1.74309671  -2.12691261
H   -1.13245090  -1.81758325  -2.53274603
H    0.53795730  -1.46026232  -2.90034055
H   -0.13269595  -1.00486902  -1.35246929
C    0.27443626  -3.10546033  -1.54427620
N    0.58687949  -4.11980197  -1.11047691
C   -2.81295546   0.07498974   0.48171036
H   -1.75492509   0.23079073   0.51632226
H   -3.20956618   0.09812664   1.47522116
H   -3.26830031   0.84741115  -0.10217775
C   -3.10954963  -1.29425893  -0.15765652
N   -3.33037747  -2.31372679  -0.63369422
C   -0.90003200   1.54729576   3.57991681
H   -1.12490086   1.37951421   4.61247844
H    0.06527887   2.00087487   3.49424292
H   -0.90282122   0.61325676   3.05793744
C   -1.96170245   2.48028053   2.96836528
N   -2.75216437   3.17493009   2.51303738
C    2.06512819   1.40846025  -2.45349331
H    2.43284529   0.86677511  -3.29981566
H    1.07147466   1.08314217  -2.22607321
H    2.70064176   1.22900755  -1.61157982
C    2.05134425   2.91457719  -2.77446334
N    2.04108148   4.03594971  -3.01344013
C    3.59546287  -1.97441081  -0.34384203
H    4.36009266  -2.66525555  -0.05578818
H    2.64811074  -2.32228173   0.01169821
H    3.80452038  -1.01415201   0.07935660
C    3.55755984  -1.86149141  -1.87922881
N    3.52933931  -1.77741778  -3.02239406
C   -0.40870525  -2.67984413   2.03246395
H   -0.49361854  -2.17862902   1.09093682
H   -0.49996084  -3.73556082   1.88402616
H    0.54409719  -2.46193211   2.46787291
C   -1.52647900  -2.19540591   2.97453690
N   -2.35871237  -1.83471964   3.67595304
Cl   1.19680422   0.35743148   0.91331074
