43
Energy:   -266.34812750
C   -0.50615908   3.39030559   2.41102841
H    0.17126346   3.64326749   1.62235284
H   -0.84842633   2.38521638   2.27855989
H   -0.00503762   3.47526009   3.35260108
C   -1.70977463   4.35053741   2.38162645
N   -2.60592111   5.06547365   2.35973536
C   -1.84659720  -0.76126805  -2.61046594
H   -2.75978822  -0.31767938  -2.94841776
H   -1.37186549  -1.26563947  -3.42602610
H   -1.19659920   0.00176293  -2.23605249
C   -2.15105530  -1.77198235  -1.48914445
N   -2.37773820  -2.52450509  -0.65426964
C   -3.04979265   1.65066965   0.24604949
H   -2.38091630   2.41650162  -0.08712616
H   -2.49785774   0.75486100   0.44045579
H   -3.53913499   1.96973904   1.14250802
C   -4.10256296   1.37851704  -0.84445848
N   -4.88639831   1.17588705  -1.65639122
C   -0.77021793  -1.10313554   2.32624231
H   -0.80531181  -2.10629479   2.69683659
H    0.23361779  -0.73701804   2.38255326
H   -1.09905337  -1.08731120   1.30814804
C   -1.69120641  -0.20904528   3.17711410
N   -2.37692420   0.45664556   3.81062683
C    2.35503870   0.13151685  -3.12852516
H    2.61557872  -0.10543707  -2.11814309
H    1.67737951   0.95952647  -3.13731062
H    3.23903666   0.38830655  -3.67396602
C    1.68308103  -1.08874892  -3.78504960
N    1.18277800  -1.99729225  -4.27386189
C    3.58487760  -0.07636926   1.28615720
H    4.23809625  -0.09012157   2.13351572
H    2.64511361  -0.51278598   1.55314629
H    3.43181628   0.93438574   0.97017358
C    4.21758371  -0.88319544   0.13710781
N    4.68866217  -1.48391420  -0.71841169
C    1.20393298  -2.79180735  -0.66291442
H    0.42322094  -3.44251335  -0.99753449
H    2.05074845  -2.88867902  -1.30976721
H    0.85644505  -1.77993763  -0.67937353
C    1.60891705  -3.17219101   0.77336416
N    1.91044609  -3.45540394   1.84273885
Cl   0.56070500   1.12389609  -0.19543212
