43
Energy:   -267.28666137
C   -2.44333640  -1.23940987   0.42949849
H   -1.59518318  -0.83156654  -0.07961849
H   -3.33155310  -0.74512561   0.09535292
H   -2.51668141  -2.28585686   0.21862340
C   -2.28011269  -1.03169745   1.94667138
N   -2.15858522  -0.87704611   3.07627556
C    0.15894870   0.54125613  -3.43304901
H    0.22927653   0.75994924  -4.47809805
H    0.75111925  -0.32118732  -3.20849517
H    0.51743285   1.37678946  -2.86889277
C   -1.31050555   0.26523150  -3.06411186
N   -2.40458103   0.05971861  -2.78942138
C   -1.58075139   2.34914443  -0.11754394
H   -2.41120475   1.82759766  -0.54560510
H   -1.91236962   2.91506708   0.72783171
H   -0.83893028   1.64385090   0.19416356
C   -0.97590376   3.30037350  -1.16679253
N   -0.52556720   4.00860678  -1.94800580
C    0.97330611   1.05423564   3.15248175
H    1.15481393   0.83925478   4.18482777
H    1.90522550   1.10194086   2.62888882
H    0.36534689   0.28229017   2.72894324
C    0.24580878   2.40601436   3.02983621
N   -0.29584605   3.41247507   2.93852103
C   -0.06287301  -3.17548435  -2.07746015
H    0.93949273  -3.05925663  -1.72157501
H   -0.46300389  -4.10140320  -1.72043262
H   -0.66428120  -2.36573281  -1.72037513
C   -0.06406279  -3.17557131  -3.61745969
N   -0.06494863  -3.17563606  -4.76405934
C    0.86172546  -3.09393871   2.14147302
H    0.46044049  -2.13018927   2.37611649
H    1.66614973  -2.98525291   1.44434456
H    1.22457680  -3.55650972   3.03548983
C   -0.24073039  -3.97168887   1.52038868
N   -1.06155888  -4.62521376   1.05796316
C    2.45651062   3.01868087   0.00977224
H    1.50688540   2.65775017   0.34569061
H    2.96664535   2.24120469  -0.51955982
H    2.31024318   3.85603223  -0.64011054
C    3.29956565   3.45197656   1.22349093
N    3.92725845   3.77458490   2.12715966
Cl   1.28179804  -0.39625825  -0.15313866
