43
Energy:   -269.97197326
C   -3.48493224  -1.30509183   1.55183597
H   -4.24909840  -2.01853872   1.77974779
H   -2.72664704  -1.34148819   2.30587705
H   -3.05329050  -1.53641483   0.60048210
C   -4.09771056   0.10705661   1.50779613
N   -4.55395188   1.15846531   1.47500648
C   -1.20961948   2.19282892   2.31644797
H   -1.41326984   1.20821605   2.68245917
H   -0.66749161   2.12627097   1.39635749
H   -2.13180949   2.70947366   2.15048747
C   -0.36950834   2.96214829   3.35276886
N    0.25599260   3.53494152   4.12435686
C    1.91194981   0.70912953  -1.93273340
H    2.98173811   0.72008878  -1.95098375
H    1.53993504   0.55065088  -2.92338400
H    1.57419010  -0.08036402  -1.29436250
C    1.39379812   2.05773012  -1.39944616
N    1.00801064   3.06182455  -1.00238957
C   -0.64731172  -2.52128878  -2.13107126
H   -0.31750791  -3.02459568  -1.24630473
H   -0.21497285  -1.54318896  -2.16716751
H   -0.34266828  -3.07791976  -2.99261256
C   -2.18268898  -2.40350296  -2.11254654
N   -3.32584714  -2.31580606  -2.09875405
C    2.56235319   1.47122372   2.09095901
H    2.30879734   0.63024926   2.70200038
H    1.71986609   1.74199672   1.48946374
H    2.83487575   2.29642296   2.71519996
C    3.74760905   1.10421690   1.17877781
N    4.63008591   0.83096364   0.49961745
C    3.10879791  -2.56871527   0.00131411
H    3.08131775  -1.51633238   0.19271757
H    4.03454337  -2.97162616   0.35565469
H    2.29543180  -3.04474614   0.50799871
C    2.98660629  -2.81834128  -1.51339908
N    2.89562907  -3.00419919  -2.64117191
C   -2.17384800   1.20892536  -1.27894925
H   -1.78111425   2.11942255  -0.87688553
H   -1.86165320   0.38626596  -0.67012661
H   -3.24267973   1.25693661  -1.29283250
C   -1.65009853   1.01340394  -2.71389102
N   -1.26014324   0.86782936  -3.78227038
Cl   0.08633524  -0.93452196   1.04395553
