43
Energy:   -269.62219695
C    0.00107133   3.87299137  -0.72295184
H    0.45278004   4.62826409  -1.33157531
H    0.21599725   2.90846869  -1.13331988
H    0.39373369   3.93345883   0.27055662
C   -1.52352718   4.08712733  -0.68627520
N   -2.65866007   4.24656128  -0.65896778
C   -1.93761608   0.58615632  -1.78868484
H   -2.15648154   1.53439939  -2.23346926
H   -1.20761918   0.71418610  -1.01692582
H   -2.83158071   0.17410195  -1.36923577
C   -1.38662150  -0.36982346  -2.86297886
N   -0.97638099  -1.08159385  -3.66283959
C   -1.08816294  -1.93395853   2.64659915
H   -0.69479407  -2.92198310   2.76478782
H   -1.61632699  -1.65190211   3.53338322
H   -0.28464401  -1.24811540   2.47667087
C   -2.05062694  -1.90499350   1.44475720
N   -2.76722514  -1.88342771   0.54993124
C   -2.33152562   1.79188728   2.01300970
H   -2.17316594   1.07991354   1.23012033
H   -1.39292504   2.21282289   2.30752837
H   -2.97701493   2.56989661   1.66237579
C   -2.98130749   1.09101156   3.22055132
N   -3.46509962   0.56917773   4.11962094
C    2.19870893   0.52040507  -2.50693823
H    1.40614099  -0.03507262  -2.05066991
H    2.85821703   0.88885898  -1.74918505
H    2.74198092  -0.11571546  -3.17410036
C    1.60830905   1.70511966  -3.29400831
N    1.16872950   2.58719352  -3.88001777
C    0.49499473  -2.74553840  -0.87534207
H    0.36385354  -1.75017283  -0.50527512
H    0.33265272  -3.44520550  -0.08224049
H   -0.20676505  -2.92894455  -1.66197699
C    1.92740320  -2.90715570  -1.41726996
N    2.99389641  -3.02748712  -1.82075991
C    3.37947776  -1.66562523   1.78816258
H    4.41452883  -1.87839156   1.95638847
H    3.07065006  -0.86698989   2.42980589
H    3.23559979  -1.37898209   0.76736195
C    2.54133420  -2.92139274   2.09174673
N    1.91729822  -3.85636874   2.31777892
Cl   0.99071287   0.81683789   0.89387121
