43
Energy:   -268.94844650
C   -1.71401209  -3.28284006  -1.37211115
H   -1.93141887  -3.77585643  -2.29654034
H   -0.95877648  -3.82841413  -0.84592943
H   -1.36476265  -2.29106132  -1.57035047
C   -2.99074397  -3.21546611  -0.51361452
N   -3.94132889  -3.16530314   0.12557524
C    2.87402297   1.79603750  -0.99138754
H    3.54550471   1.86870837  -1.82128596
H    2.71132076   0.76560454  -0.75340648
H    3.29777071   2.29497041  -0.14498167
C    1.53187842   2.45640971  -1.35766140
N    0.53259079   2.94808683  -1.63036893
C    1.02993459  -0.71671934  -3.39469080
H    0.59385269  -0.05880818  -2.67227426
H    1.31771628  -1.63011215  -2.91741273
H    0.31587563  -0.92570076  -4.16368083
C    2.27108935  -0.04823852  -4.01458455
N    3.19518549   0.44947583  -4.47612362
C   -0.14428714   2.23132366   1.82279521
H    0.17888825   1.40031594   1.23128527
H    0.14584223   2.07842804   2.84129753
H    0.30729491   3.12858366   1.45415280
C   -1.67693085   2.35602551   1.73881473
N   -2.81805375   2.44887171   1.67628744
C   -2.17388039   0.78486321  -1.34747320
H   -1.22382173   0.49157841  -0.95215972
H   -2.94783967   0.49498103  -0.66787446
H   -2.19335950   1.84665516  -1.47830707
C   -2.39929689   0.09599980  -2.70624272
N   -2.56712971  -0.41689032  -3.71790839
C   -1.95797177  -1.32064656   2.38302807
H   -1.94343212  -0.63551985   1.56126766
H   -2.96869307  -1.59834174   2.59803260
H   -1.39440731  -2.19407097   2.12920929
C   -1.33532534  -0.64996397   3.62161447
N   -0.87173677  -0.15061029   4.54379835
C    2.66637372  -0.29304657   3.07037217
H    3.00390904  -0.89676589   2.25398191
H    1.60203341  -0.36651096   3.15211440
H    3.11826100  -0.63539717   3.97783734
C    3.06205039   1.17432332   2.82164425
N    3.35664966   2.26684690   2.63645500
Cl   0.85916397  -1.28180513   0.16680648
