43
Energy:   -267.26901467
C    1.24761546   3.85819280   0.42146366
H    0.47320541   3.16220336   0.66801577
H    1.96454319   3.38327504  -0.21522060
H    0.82293430   4.69964681  -0.08499477
C    1.94157171   4.33235996   1.71188617
N    2.45825367   4.68539896   2.67266438
C   -1.66444345  -2.21314337  -1.51893210
H   -1.13214749  -2.95505184  -2.07672508
H   -1.00258068  -1.40945636  -1.27210429
H   -2.47614232  -1.83888834  -2.10713038
C   -2.21490074  -2.84070686  -0.22480659
N   -2.62474121  -3.30795640   0.73872868
C   -1.59004916   1.84827936  -1.99253416
H   -0.94300758   1.15130599  -2.48290697
H   -1.09431058   2.25259789  -1.13482274
H   -1.83806912   2.64054175  -2.66759378
C   -2.87783726   1.12921669  -1.54964514
N   -3.83665403   0.59384185  -1.21989414
C   -1.85780190   0.06707835   1.80082198
H   -2.78997278  -0.29188691   1.41728374
H   -1.69757616  -0.33248588   2.78040109
H   -1.06319163  -0.24298140   1.15479059
C   -1.89042282   1.60505078   1.87277109
N   -1.91471058   2.75014117   1.92634047
C    1.28124928  -2.82233716   1.18978680
H    0.38078185  -2.24767769   1.25163407
H    2.12186623  -2.16292272   1.13117943
H    1.37144234  -3.43874079   2.05973557
C    1.23757856  -3.71132222  -0.06695440
N    1.20506373  -4.37321201  -1.00265534
C    1.60262349  -1.46986490  -3.48349038
H    2.18808241  -0.60020758  -3.26940121
H    2.15920806  -2.12708064  -4.11845509
H    1.36465495  -1.97340906  -2.56986390
C    0.30142906  -1.05089406  -4.19268464
N   -0.66736933  -0.73895123  -4.72071201
C    1.81864006   1.02115589   3.01416487
H    2.22771041   1.71948140   3.71409565
H    1.03294488   1.49051438   2.45983214
H    2.58615585   0.69887726   2.34188881
C    1.25604828  -0.19559806   3.77218882
N    0.83717312  -1.10152668   4.33657211
Cl   1.29515252   0.35714246  -0.46471823
