43
Energy:   -267.84310811
C    3.57078421   1.55404944   0.98198152
H    3.69865752   0.52879640   1.26019869
H    4.47362093   1.91844392   0.53813288
H    2.76917352   1.63524176   0.27790255
C    3.24105185   2.38833701   2.23371664
N    2.99555112   3.00950203   3.16569034
C    1.51539277   0.56664157  -2.92279584
H    1.53171034   0.42244014  -3.98290898
H    0.50285158   0.66866562  -2.59226516
H    1.96454350  -0.27668766  -2.44117511
C    2.30277018   1.84111141  -2.56591568
N    2.88900845   2.79001213  -2.30020217
C   -0.52262908   2.56017315   0.21945452
H    0.53486614   2.40582860   0.27219719
H   -1.02874335   1.68423063   0.56798307
H   -0.79217416   3.39522976   0.83176572
C   -0.92826280   2.84115957  -1.23934907
N   -1.23027554   3.05036673  -2.32549466
C   -2.13860650  -1.92491706   1.93403959
H   -1.18062505  -2.28997234   2.24048104
H   -2.81398685  -1.95565646   2.76338605
H   -2.04248939  -0.91646608   1.58952946
C   -2.68367857  -2.80668569   0.79518906
N   -3.08950951  -3.46320251  -0.05273692
C    0.14405387  -3.47011038  -1.86453241
H   -0.08926331  -4.51171035  -1.93891500
H   -0.55582232  -2.99366974  -1.21025669
H    1.13354813  -3.35321765  -1.47448588
C    0.06302254  -2.82494040  -3.26052297
N    0.00269103  -2.34458202  -4.29990139
C    0.46307568   0.53134857   3.69118964
H   -0.01620126   0.90508162   2.81055499
H    1.19466262  -0.19946226   3.41624387
H    0.94097993   1.33798710   4.20678726
C   -0.58788884  -0.11568401   4.61228813
N   -1.37037970  -0.59742917   5.29808781
C   -2.31625743  -0.42344471  -1.96273436
H   -1.35046831  -0.60598315  -1.53984990
H   -2.21963587   0.23204147  -2.80291364
H   -2.74724002  -1.34974071  -2.28074195
C   -3.22504349   0.22903904  -0.90444666
N   -3.90167603   0.71484285  -0.11650337
Cl   0.89884151  -0.78700817   0.37184780
