43
Energy:   -270.33037205
C    0.58902486   1.92345877  -1.72588238
H    0.61062600   1.29399957  -0.86088834
H   -0.17950293   2.65925533  -1.61244708
H    1.53541083   2.41031923  -1.83642459
C    0.30195202   1.06969584  -2.97499328
N    0.08821325   0.43403052  -3.90501312
C   -1.95519082  -1.33888947  -1.66900360
H   -2.29358494  -0.54387669  -2.30014882
H   -1.49575171  -2.09804063  -2.26692025
H   -1.24318195  -0.95836478  -0.96676188
C   -3.15416775  -1.93817553  -0.91077507
N   -4.04686058  -2.38437125  -0.34623945
C   -3.07122196   0.60144675   1.72989673
H   -3.75837669  -0.20011259   1.55605431
H   -3.46357202   1.25015060   2.48497543
H   -2.13287989   0.20272437   2.05460230
C   -2.86805282   1.39530800   0.42601536
N   -2.71678415   1.98637378  -0.54478359
C    0.09066336   2.93943865   2.12476633
H    0.72963886   3.78046701   1.95364710
H   -0.19350887   2.51066987   1.18652192
H    0.61131012   2.20872173   2.70775760
C   -1.16933252   3.39777997   2.88235041
N   -2.10745672   3.73903593   3.44640619
C    3.60424637   1.25323243   0.75593884
H    3.38613168   0.97036663   1.76455824
H    4.62679941   1.02804584   0.53554065
H    2.96773794   0.71141092   0.08796760
C    3.36255238   2.76426871   0.58286843
N    3.18260021   3.88930391   0.45400965
C   -0.82571134  -3.85698259   1.28085169
H    0.10550332  -3.62436982   1.75374781
H   -1.31562676  -4.63859677   1.82303362
H   -1.44759888  -2.98632710   1.27017507
C   -0.56579871  -4.31992485  -0.16473812
N   -0.37228194  -4.66460641  -1.24104544
C    1.94684140  -2.03554826  -1.66924115
H    1.88973512  -2.85888094  -2.35024215
H    1.01902540  -1.50261378  -1.67535585
H    2.14148536  -2.40146061  -0.68277220
C    3.08425345  -1.09095002  -2.10008681
N    3.93110843  -0.38765370  -2.42087100
Cl   0.57158419  -0.58975856   1.36294886
