43
Energy:   -266.41509428
C   -2.18699932   2.76092060  -0.83822475
H   -1.14946343   2.56233654  -0.66797831
H   -2.57670740   3.34115217  -0.02806550
H   -2.30074771   3.30412599  -1.75304074
C   -2.95567577   1.42982139  -0.93262505
N   -3.52799034   0.43875753  -1.00291037
C   -1.27678668  -2.16227430  -1.29242099
H   -2.33862654  -2.04696724  -1.35645673
H   -0.84124865  -1.25685056  -0.92443518
H   -1.04490423  -2.96632184  -0.62560979
C   -0.70911661  -2.47413678  -2.68959402
N   -0.28646044  -2.70633257  -3.72985285
C    0.59202994   2.80437148   2.65900083
H    1.05169886   3.31856550   3.47705289
H    0.99699106   3.16664066   1.73722720
H    0.78319156   1.75507343   2.74461591
C   -0.92752349   3.05312489   2.68506068
N   -2.05890009   3.23833311   2.70446343
C   -1.86448596  -0.37433018   2.01879440
H   -1.14945748  -0.12859442   1.26166271
H   -2.64038991   0.36239488   2.02920263
H   -2.28758284  -1.33501120   1.81147794
C   -1.16792634  -0.40567688   3.39190112
N   -0.64930603  -0.42901591   4.41424149
C   -0.11821978   0.93959313  -3.63668833
H   -0.57737554   0.49558403  -2.77824084
H    0.82669155   1.35809814  -3.35938845
H    0.02933222   0.19276830  -4.38860598
C   -1.02971089   2.05117145  -4.18911716
N   -1.70835745   2.87879203  -4.60042553
C    2.85241745  -2.14225963  -1.36244105
H    2.19091331  -1.61708417  -2.01933008
H    3.63654004  -2.59470797  -1.93282806
H    3.27410868  -1.45634670  -0.65774321
C    2.06901700  -3.23413612  -0.61031775
N    1.48573975  -4.04708781  -0.05032777
C    2.28324437  -1.23289975   2.51494868
H    2.41695119  -0.18941234   2.31961128
H    1.92718692  -1.36576541   3.51518310
H    1.57066160  -1.63626102   1.82616383
C    3.62885199  -1.96297695   2.34783365
N    4.63071802  -2.50655261   2.22340891
Cl   1.12767744   0.81937710  -0.25518219
