43
Energy:   -266.40666021
C    2.97417078  -1.76451450   2.29443427
H    3.35261791  -1.39610498   1.36386865
H    2.31847513  -1.03726805   2.72579828
H    2.43643049  -2.67406630   2.12576302
C    4.14714754  -2.03236586   3.25567367
N    5.02048206  -2.23179337   3.97136009
C   -0.78763845   3.02277122   2.02934887
H    0.07537860   2.51764421   2.41006984
H   -0.80091801   4.02921907   2.39237155
H   -0.75396163   3.02977359   0.95990232
C   -2.05909694   2.29116449   2.49811842
N   -3.00575558   1.74645002   2.84713866
C   -1.18479697  -1.22830579   2.46173247
H   -0.47332773  -0.48506137   2.75550014
H   -2.07999527  -1.11189231   3.03616001
H   -1.41080534  -1.11450870   1.42208372
C   -0.59508030  -2.62935579   2.70849786
N   -0.15600943  -3.67250120   2.89222590
C   -2.74018581   0.58596956  -0.68093021
H   -3.20327729   0.04735348  -1.48114216
H   -3.24276333   0.36290202   0.23697818
H   -1.71272463   0.29726656  -0.60429339
C   -2.82912052   2.09774377  -0.96062530
N   -2.89533645   3.22332839  -1.16887101
C    0.57508396   3.40372301  -1.89474356
H    1.54839101   3.27892449  -1.46813028
H   -0.06245605   2.60927670  -1.56718149
H    0.16597376   4.34152272  -1.58159879
C    0.68064345   3.37701779  -3.43088940
N    0.75923729   3.35713453  -4.57461979
C    0.67212573  -3.20343696  -0.66076703
H    0.77028916  -3.83464014   0.19763070
H    1.19709739  -2.28661638  -0.49122685
H    1.08414235  -3.69750523  -1.51577461
C   -0.81772157  -2.90342301  -0.90965790
N   -1.92698060  -2.68004898  -1.09496847
C    0.53936290  -0.21745721  -3.26744575
H    1.41511892   0.18428259  -2.80208919
H   -0.24560189  -0.29387705  -2.54433485
H    0.23006009   0.42808361  -4.06274941
C    0.85385682  -1.61477345  -3.83330871
N    1.08801184  -2.65513891  -4.25461940
Cl   1.07945663   0.53310374   0.26531095
