43
Energy:   -267.06444340
C    0.99666505  -0.10861018  -2.89590905
H    0.40017662   0.23498875  -2.07673782
H    0.70229596  -1.10311089  -3.15899510
H    0.85589296   0.53902385  -3.73594029
C    2.48144318  -0.10390704  -2.48723827
N    3.58692798  -0.10040534  -2.18296430
C   -2.53895929  -1.54050714  -1.95665631
H   -2.97654714  -2.50504641  -2.10858082
H   -3.15115329  -0.97246568  -1.28774190
H   -1.56171513  -1.65444417  -1.53604807
C   -2.43455907  -0.80586125  -3.30609917
N   -2.35682835  -0.25888400  -4.31082071
C   -1.96909491  -2.33240105   2.09859979
H   -2.82549081  -2.95632740   2.24760368
H   -1.77016520  -2.24397369   1.05098027
H   -2.15873049  -1.36249432   2.50874411
C   -0.74989944  -2.95762460   2.80163458
N    0.15784701  -3.42313194   3.32507594
C   -1.49844631   2.95843586  -2.36179010
H   -1.68149653   3.24776196  -1.34804299
H   -1.65299147   1.90474037  -2.46542744
H   -2.16993169   3.48277917  -3.00914670
C   -0.04612176   3.30389460  -2.73995892
N    1.03519988   3.56110434  -3.02152279
C    1.90135241  -1.59623808   0.76919610
H    2.06410207  -2.11615992   1.69011629
H    1.30660182  -0.72562563   0.95141791
H    2.84295711  -1.30427462   0.35321890
C    1.16790264  -2.52118117  -0.21980931
N    0.62181594  -3.20984335  -0.95616879
C    2.01737157   2.39459827   0.23473257
H    2.68555758   2.94520167  -0.39396730
H    1.18493887   3.01293857   0.49856996
H    1.66727541   1.52922726  -0.28820605
C    2.75764208   1.95767973   1.51250475
N    3.30880712   1.63237402   2.46386423
C    0.15797844   0.59453834   3.78982401
H    1.05972095   0.93144765   4.25699928
H   -0.30541817   1.41191777   3.27791236
H    0.38746004  -0.18100385   3.08927307
C   -0.80319567   0.04942543   4.86248251
N   -1.51883348  -0.35643590   5.66112552
Cl  -1.17835446   0.74788003   0.40389638
