43
Energy:   -266.81481820
C    3.54506888   1.23967315  -2.06614184
H    2.96939231   2.06773024  -1.70862526
H    4.56205907   1.35040552  -1.75250447
H    3.14625278   0.32986354  -1.66853490
C    3.48390413   1.19796374  -3.60436133
N    3.43836420   1.16690919  -4.74963566
C   -0.28294619  -0.49276914   3.49376937
H    0.16796994  -1.42639110   3.75820248
H   -0.36884408   0.12146706   4.36568366
H    0.32486282   0.00352025   2.76633268
C   -1.68309269  -0.74737859   2.90524256
N   -2.72556540  -0.93694690   2.46705760
C   -1.54930153   3.02226317   2.27357975
H   -0.63116024   3.41099339   1.88524283
H   -2.35200576   3.68255481   2.01945389
H   -1.73460070   2.05661013   1.85158743
C   -1.44875215   2.90227417   3.80560209
N   -1.37388856   2.81293691   4.94626237
C   -2.84665983   0.97486177  -0.80504433
H   -3.37572399   0.29880786  -1.44374803
H   -2.50624830   0.45182062   0.06412023
H   -2.00636172   1.37820205  -1.33051060
C   -3.78454388   2.12015585  -0.38045632
N   -4.48284119   2.97287935  -0.06433125
C    0.21533377  -0.28502342  -3.45508824
H   -0.77077216  -0.63737145  -3.67496582
H    0.63101376   0.17795982  -4.32557992
H    0.16990771   0.42839418  -2.65892815
C    1.10170184  -1.47104556  -3.03164623
N    1.76164315  -2.35409295  -2.71637440
C   -0.94673910  -2.48051522  -0.16764985
H   -0.09236498  -3.07946028  -0.40473605
H   -1.46773855  -2.91422568   0.66021119
H   -0.62888208  -1.49169185   0.08943837
C   -1.88402757  -2.41742958  -1.38794101
N   -2.58188144  -2.37045945  -2.29650325
C    2.77646614  -1.69874979   0.70089390
H    2.95192540  -0.76509991   1.19324758
H    2.12671320  -1.54452675  -0.13512970
H    3.70682625  -2.10248855   0.35983059
C    2.12007027  -2.68339330   1.68639967
N    1.63135370  -3.41650515   2.42015350
Cl   0.69411277   1.14731788   0.11612487
