43
Energy:   -269.20669827
C    0.84710890   2.66443962  -0.53597571
H    0.41517279   1.72247690  -0.26944692
H    1.82491636   2.50666401  -0.94081954
H    0.23148643   3.14490905  -1.26745175
C    0.94749857   3.55572553   0.71587546
N    1.02224324   4.21932840   1.64793556
C   -1.60998312  -3.49659320  -1.05284386
H   -2.38560047  -3.16385240  -0.39511940
H   -0.67529002  -3.07841336  -0.74240300
H   -1.55051112  -4.56451306  -1.02268857
C   -1.92452906  -3.04035045  -2.48968185
N   -2.15872281  -2.70065699  -3.55947305
C    1.71835158   0.84146518   2.90722234
H    1.80248134   0.65848967   1.85634541
H    1.94134257   1.86824519   3.10945223
H    0.72141522   0.62299682   3.22860772
C    2.71117216  -0.05855299   3.66608635
N    3.45037221  -0.72865743   4.23109510
C    1.95480723  -2.73047679   1.42858240
H    1.01373534  -2.79407191   1.93379477
H    2.11964305  -1.72334292   1.10700875
H    2.73819459  -3.02471449   2.09538636
C    1.94451472  -3.66498658   0.20457852
N    1.93685148  -4.36077161  -0.70674800
C   -2.28378496   2.52750973   2.11921401
H   -1.23827731   2.31844740   2.20925220
H   -2.83149032   1.60840494   2.10639513
H   -2.60183496   3.12066060   2.95102849
C   -2.54249436   3.29753456   0.81088255
N   -2.73511526   3.87085304  -0.16322970
C   -2.58820667   0.82439103  -2.04010563
H   -3.52005451   1.27598117  -2.30959796
H   -2.35081275   1.07373916  -1.02700706
H   -2.66565684  -0.23838666  -2.13708062
C   -1.47723979   1.34517021  -2.97077294
N   -0.65007445   1.73291399  -3.66369706
C    1.15799208  -0.99848916  -2.26090877
H    1.06727299  -0.50305505  -3.20495076
H    0.26980518  -0.83693658  -1.68651875
H    1.29368312  -2.04780232  -2.42037324
C    2.37159342  -0.43383129  -1.49937527
N    3.27517479  -0.01341784  -0.93237896
Cl  -0.98715054  -0.59847313   0.96990502
