43
Energy:   -268.46549562
C   -2.94358081   2.87178053  -0.39837893
H   -2.65451404   2.07572159  -1.05231374
H   -2.08058684   3.44524966  -0.13140768
H   -3.65112395   3.50229772  -0.89509804
C   -3.58335502   2.28466901   0.87346581
N   -4.05969600   1.84753780   1.82041202
C   -0.84647712  -0.32396454  -3.42259744
H   -0.35735267  -0.33307356  -4.37421421
H   -0.45038937   0.47075840  -2.82558066
H   -1.89678550  -0.17535356  -3.56283359
C   -0.60886159  -1.66855242  -2.71040204
N   -0.43194603  -2.66965922  -2.18014019
C   -2.70202549  -1.13953848   0.17294121
H   -2.36753142  -2.14780925   0.04486326
H   -3.27168402  -1.06468097   1.07559540
H   -1.85558030  -0.48750798   0.23026359
C   -3.58181435  -0.73455695  -1.02437309
N   -4.23685714  -0.43302978  -1.91582801
C   -0.74884940   0.76728522   3.19455724
H    0.28748994   0.72181776   2.93219553
H   -0.86157131   1.30983895   4.10988686
H   -1.29218514   1.26256644   2.41713723
C   -1.29617172  -0.66098468   3.37367556
N   -1.70367806  -1.72439654   3.50703729
C    2.86165553  -0.35813559  -2.07565276
H    2.05972823  -0.83949320  -1.55593395
H    2.84583801   0.69043898  -1.86319036
H    3.79438036  -0.77299068  -1.75499915
C    2.69616996  -0.57742319  -3.59095058
N    2.57295843  -0.74069278  -4.71915868
C    3.42777592   1.44482039   1.59034376
H    2.57062417   0.83629176   1.79005343
H    3.15943639   2.22714100   0.91147156
H    3.78261530   1.87226751   2.50482561
C    4.53694055   0.57948401   0.96380822
N    5.36276403  -0.06479826   0.49732403
C    0.91153054  -2.24750086   0.95307148
H    0.03929848  -2.78632211   1.25931171
H    1.48833788  -2.85255521   0.28516310
H    0.61799557  -1.34701507   0.45521440
C    1.75919371  -1.89720084   2.19014748
N    2.39031747  -1.63638655   3.11120680
Cl   0.31756682   1.47365552  -0.21091946
