43
Energy:   -267.04367411
C    0.78590753   2.35451746   1.79622655
H    1.38409122   1.47832854   1.65705241
H   -0.24289983   2.07380404   1.88371649
H    1.09488439   2.85944020   2.68756566
C    0.96098830   3.29288236   0.58774898
N    1.09134389   3.99153768  -0.31201750
C   -1.61680152  -1.64888633  -2.44570340
H   -2.07843953  -2.46269587  -2.96484168
H   -2.26940467  -1.30385353  -1.67113217
H   -0.69446517  -1.97811168  -2.01465188
C   -1.34060156  -0.50035781  -3.43372962
N   -1.13495813   0.35477388  -4.16936006
C   -3.89513205  -0.24279982   1.48787675
H   -3.16172038   0.51959475   1.64838229
H   -3.45312673  -1.20323228   1.65249716
H   -4.70919038  -0.10348229   2.16816988
C   -4.41521931  -0.15828624   0.04082226
N   -4.80244792  -0.09536203  -1.03657558
C   -1.93802695   2.14770665  -1.17291553
H   -1.46145639   1.25655085  -0.82131630
H   -1.21654233   2.76933237  -1.66070699
H   -2.71198884   1.88900524  -1.86498175
C   -2.54840534   2.90796649   0.01915964
N   -3.00285980   3.47401450   0.90671378
C    1.65430295   0.74917919  -1.88143864
H    0.76764784   0.39322085  -1.39973690
H    1.83669692   0.17251921  -2.76410211
H    1.52731269   1.77780538  -2.14733474
C    2.85068567   0.61099941  -0.92166017
N    3.74144700   0.50811827  -0.20706147
C    2.15858033  -3.02819442  -0.32629378
H    2.91915170  -3.74057876  -0.08351831
H    1.21842467  -3.36545066   0.05745701
H    2.40336694  -2.08240668   0.11012821
C    2.06473755  -2.87872371  -1.85614738
N    1.99486734  -2.76743598  -2.99519292
C    2.45888548  -1.04533129   3.02872787
H    1.97522799  -1.91838966   2.64305353
H    3.02222325  -0.57603039   2.24942927
H    1.72187890  -0.36254221   3.39685754
C    3.40494567  -1.44692896   4.17558856
N    4.10933048  -1.74593667   5.02947847
Cl  -0.45324189  -0.92628007   0.92376656
