43
Energy:   -268.69255136
C   -2.02944245   1.32150982  -1.14308602
H   -2.60320454   1.36865199  -0.24115761
H   -1.55309879   0.36596111  -1.21324632
H   -2.67559971   1.46056784  -1.98453879
C   -0.95924744   2.42879856  -1.12914735
N   -0.16243860   3.25322535  -1.11876937
C   -2.14915045  -2.63755461  -2.02581001
H   -2.89940745  -3.40044347  -2.02970938
H   -2.25028270  -2.04236363  -1.14239671
H   -1.17986209  -3.09046366  -2.04170217
C   -2.31883732  -1.74434297  -3.26878198
N   -2.44517691  -1.07930630  -4.19423112
C   -2.17620385  -1.22018044   2.20343872
H   -1.41751431  -1.95100474   2.39101856
H   -2.49676085  -0.79280794   3.13052829
H   -1.78200704  -0.45049820   1.57328222
C   -3.37413807  -1.89120492   1.50610111
N   -4.26605455  -2.39081315   0.98690156
C    0.35472832   1.99929465   2.23411398
H    0.79090999   2.79486165   1.66691129
H    0.51310314   1.07081188   1.72643667
H    0.81059086   1.95923221   3.20131790
C   -1.15709254   2.24825442   2.38908728
N   -2.28271189   2.43361629   2.50447196
C    0.94697460  -0.11044071  -3.55736157
H    0.20772366  -0.07931992  -4.33030383
H    0.63521197   0.50649862  -2.74060639
H    1.06595557  -1.11819515  -3.21798922
C    2.28840719   0.40725117  -4.10886290
N    3.28716473   0.79269631  -4.51948071
C    3.06190855   1.27352573  -0.72161954
H    2.03617409   1.55776367  -0.83106270
H    3.15871762   0.21960792  -0.87904996
H    3.65594581   1.79763999  -1.44087128
C    3.54389797   1.62695729   0.69766632
N    3.90276100   1.89010314   1.75438915
C    2.26702032  -1.38218182   2.99693964
H    1.95629333  -2.23954872   2.43723355
H    3.17007278  -1.60862117   3.52431103
H    2.43939297  -0.56381681   2.32950763
C    1.16642473  -1.00014415   4.00408241
N    0.34698128  -0.71569974   4.75394598
Cl   0.57187106  -1.26787739  -0.13190032
