43
Energy:   -269.67689313
C    1.33705200  -3.30072995  -0.48883537
H    2.22791044  -2.81995843  -0.14223739
H    1.30467910  -4.30320871  -0.11615933
H    0.48157082  -2.76208280  -0.13824972
C    1.33272793  -3.32511081  -2.02863630
N    1.32950847  -3.34326346  -3.17508807
C    2.34954072   0.18666052  -3.19222374
H    1.77915106  -0.55824410  -2.67776002
H    2.91084116   0.75877669  -2.48333448
H    3.01970080  -0.28792803  -3.87819041
C    1.39809116   1.11840112  -3.96565971
N    0.68969372   1.81212435  -4.54151794
C    1.01903740   2.19662448   3.23033081
H    1.44131926   3.02176039   3.76486700
H    0.58275947   2.54797344   2.31867596
H    1.78688088   1.48554357   3.00744201
C   -0.06594130   1.52678951   4.09389455
N   -0.87375725   1.02806692   4.73685701
C   -1.38364461  -0.78665064  -2.37736072
H   -0.59471844  -0.20774658  -1.94450305
H   -2.16439706  -0.13424300  -2.70855398
H   -1.00398664  -1.34025542  -3.21059579
C   -1.94183332  -1.76204376  -1.32444400
N   -2.35743019  -2.48826827  -0.54049964
C   -0.02346469  -1.93663131   2.84245685
H    0.78096052  -1.23155176   2.86820746
H   -0.72023699  -1.71144155   3.62264723
H   -0.51782904  -1.87928126   1.89524307
C    0.53311171  -3.35806742   3.04578443
N    0.94750813  -4.41639121   3.19717106
C   -2.24751833   0.81280040   1.33545488
H   -2.13633515  -0.25139680   1.33068025
H   -2.74869938   1.11503230   2.23120737
H   -1.28215016   1.27245453   1.29444919
C   -3.07562294   1.24790327   0.11212817
N   -3.69218447   1.57185714  -0.79869417
C   -0.14723481   3.11757576  -1.33984654
H   -0.73577215   2.22848243  -1.42949605
H    0.88768296   2.85477711  -1.27070048
H   -0.30159886   3.73567898  -2.19950882
C   -0.56752084   3.88583390  -0.07306358
N   -0.88044290   4.45783701   0.87011392
Cl   1.32259179   0.22154144   0.24754808
