43
Energy:   -268.17003888
C   -2.25261174   3.37482699   0.95649681
H   -1.60271153   2.94928502   0.22066808
H   -2.30576433   2.72432780   1.80439108
H   -1.87154488   4.32719340   1.26093951
C   -3.65993615   3.55282650   0.35703523
N   -4.70775314   3.68535523  -0.08929116
C    0.48866620   0.57479178  -2.36780420
H    0.22605849   0.05609364  -1.46953386
H    1.55122779   0.55673517  -2.49244731
H    0.02323343   0.09714586  -3.20453941
C    0.00720499   2.03477305  -2.27697575
N   -0.35126476   3.12179546  -2.20934984
C   -3.33395099   0.38076887  -1.23945591
H   -2.55027763   1.10109190  -1.13041009
H   -3.44583734  -0.16555673  -0.32626980
H   -4.25045716   0.88286116  -1.46927949
C   -2.98173772  -0.59229662  -2.37993359
N   -2.71949893  -1.31678811  -3.22907107
C   -0.67795949  -3.17348046  -0.98783088
H   -1.58617565  -3.33544273  -1.52987497
H   -0.77311677  -2.29293095  -0.38743373
H   -0.48387622  -4.01586262  -0.35725727
C    0.48681548  -2.99530802  -1.97937203
N    1.35404338  -2.86265054  -2.71761949
C    1.84291637   2.52003732   1.06892710
H    2.14585183   3.39829269   1.59977341
H    1.85141392   1.68114192   1.73306667
H    0.85467552   2.65954412   0.68315907
C    2.81701546   2.26260245  -0.09574378
N    3.54227650   2.07093048  -0.96289419
C    0.68839912  -2.32739176   3.42384616
H    1.20921945  -1.42903195   3.16578411
H    0.94223452  -2.61219784   4.42352219
H   -0.36631194  -2.15975232   3.35765941
C    1.09147015  -3.45172796   2.45173410
N    1.39157486  -4.28884737   1.72795249
C    2.77562323  -1.30487365   0.12382110
H    2.83010690  -2.36217806  -0.03122441
H    3.22225087  -0.79912956  -0.70662803
H    1.75094544  -1.00966638   0.21206607
C    3.52916894  -0.93591625   1.41519220
N    4.09021797  -0.66121070   2.37667667
Cl  -0.79182445   0.07981977   1.27752880
