43
Energy:   -270.12585899
C    0.62801042  -3.69098161   0.47381810
H    1.15933914  -4.04290904   1.33331624
H    0.09808689  -2.79571209   0.72396333
H    1.32135403  -3.48643843  -0.31506454
C   -0.37191030  -4.76737923   0.01216160
N   -1.11639673  -5.56880618  -0.33156264
C   -2.14999028   1.63468527   0.29823654
H   -2.03225265   2.69294917   0.40366685
H   -1.22103169   1.20126929  -0.00849723
H   -2.44759823   1.21376080   1.23586717
C   -3.22811936   1.34118741  -0.76152603
N   -4.03083546   1.12266492  -1.55056744
C    1.77192202   3.17614332  -0.37985608
H    2.82542832   3.33481182  -0.28061411
H    1.33443857   4.00177095  -0.90124494
H    1.59718432   2.27455903  -0.92895680
C    1.13680016   3.05709990   1.01801690
N    0.66392307   2.96846665   2.05879688
C   -0.11815535  -0.42990157   2.69000472
H   -0.02918367  -0.38700284   1.62457339
H    0.04271311   0.54487973   3.10088409
H   -1.09792207  -0.77043351   2.95267229
C    0.93239516  -1.40449035   3.25402630
N    1.71457776  -2.13011599   3.67396600
C   -2.55242525  -2.27568896  -1.35916677
H   -3.11788404  -1.57635449  -1.93889760
H   -2.86437324  -3.27110025  -1.59737656
H   -1.51182638  -2.16500132  -1.58232889
C   -2.78730028  -2.00886664   0.13924558
N   -2.96217541  -1.81020530   1.25488168
C    3.50673774  -0.01779166   1.15781815
H    3.63346492  -0.52940160   0.22663843
H    2.48546384   0.28356323   1.26309839
H    3.77048494  -0.67156670   1.96274964
C    4.41461916   1.22576799   1.18799643
N    5.09057814   2.15165468   1.21046553
C   -0.85176167   1.54235554  -3.58519896
H    0.17710483   1.25906812  -3.66318719
H   -1.28229675   1.59514357  -4.56333599
H   -1.37853155   0.81590302  -3.00237882
C   -0.95475695   2.91965337  -2.90399220
N   -1.03144161   3.94511421  -2.39680280
Cl   0.83354242  -0.50232422  -1.20630864
