43
Energy:   -267.17330716
C   -0.60197509   3.28276501   0.01959067
H   -0.04006517   4.12671317  -0.32232881
H    0.04742473   2.60773142   0.53680302
H   -1.37411303   3.61324581   0.68252696
C   -1.23405530   2.56400772  -1.18683486
N   -1.70466775   2.02886024  -2.08507350
C   -0.72705619  -1.27933233  -2.46536208
H   -0.99727679  -0.53695044  -3.18699227
H   -0.10383099  -2.01600852  -2.92774463
H   -0.19546430  -0.81705452  -1.65999981
C   -2.00021615  -1.95287994  -1.92038746
N   -2.94814161  -2.45436675  -1.51462909
C   -2.70258298  -0.04792684   1.06105994
H   -3.56559008  -0.62241868   0.79633733
H   -2.12680400  -0.58307842   1.78700102
H   -2.10676262   0.12319809   0.18892839
C   -3.14672593   1.30284063   1.65246867
N   -3.47741055   2.30854841   2.09279935
C   -0.15607928   1.87408324   3.74888075
H    0.81607476   1.98840620   3.31673846
H   -0.84054540   2.54192962   3.26889490
H   -0.48909868   0.86592926   3.61613010
C   -0.09083571   2.19933274   5.25272783
N   -0.04225890   2.44149579   6.37241034
C    2.25638174   1.51450550  -2.00862790
H    2.79315253   1.10633987  -2.83939749
H    1.25726152   1.13155124  -2.00664860
H    2.74570867   1.23911865  -1.09779294
C    2.21755423   3.04948067  -2.12671111
N    2.18864538   4.19233946  -2.21462943
C    2.88077161  -2.33280129  -1.18005399
H    1.85553410  -2.28948971  -0.87688350
H    3.45945103  -1.66431089  -0.57743488
H    3.24695861  -3.33074805  -1.05795382
C    2.99644609  -1.92096601  -2.65944951
N    3.08257099  -1.61433592  -3.76092672
C   -0.52990589  -3.47470504   1.13050142
H   -1.14443259  -4.10980167   1.73375044
H   -1.10846637  -2.64467144   0.78234758
H    0.29294315  -3.11652636   1.71319052
C    0.00296123  -4.27077950  -0.07528384
N    0.39970502  -4.86349312  -0.97304577
Cl   0.91481596  -0.15977728   0.97110429
