43
Energy:   -266.60475308
C    2.26916405  -0.49993024   2.23773654
H    1.33681378  -0.63246341   1.72974235
H    2.08707231  -0.32454221   3.27743877
H    2.86580183  -1.38080084   2.12376537
C    3.01441641   0.70618814   1.63650665
N    3.56929067   1.60419809   1.18886367
C   -3.55150314   1.30936145  -1.18786050
H   -4.19181075   1.82054882  -0.49967896
H   -2.53567211   1.59354620  -1.00834602
H   -3.65524829   0.25283143  -1.05414309
C   -3.94266137   1.68523430  -2.62914980
N   -4.23389645   1.96508871  -3.70225519
C    0.09074531   2.61417517   0.76881326
H    0.16858331   2.48693270  -0.29073890
H    0.26884542   1.67756940   1.25455917
H    0.81600480   3.32943521   1.09638131
C   -1.32144828   3.11588247   1.12321284
N   -2.37289059   3.48942636   1.38707943
C   -1.90706839  -0.31143706   2.85959859
H   -1.41853090  -1.18537015   2.48214363
H   -2.28922078   0.26442236   2.04274820
H   -2.71397278  -0.60213575   3.49936313
C   -0.89884246   0.53595653   3.65772426
N   -0.14817243   1.16687958   4.25196510
C   -0.66895284   0.68287149  -3.81868720
H   -0.97073701  -0.31143134  -3.56336703
H   -1.42732128   1.14326604  -4.41686214
H   -0.52512171   1.25264903  -2.92450308
C    0.64986746   0.63124646  -4.61219075
N    1.63178912   0.59280928  -5.20299020
C    0.60153067  -3.74099797   0.86841634
H   -0.33551515  -3.68764165   0.35460858
H    1.04999025  -4.69670847   0.69405885
H    1.25079602  -2.97108816   0.50704054
C    0.37027244  -3.55037676   2.37897359
N    0.19809019  -3.40845060   3.50365212
C    2.67043158  -0.63234222  -1.88563580
H    3.33138032  -0.28806742  -2.65343904
H    2.36550680   0.19534519  -1.27995145
H    1.80929307  -1.08380410  -2.33231434
C    3.39742024  -1.66932592  -1.00942105
N    3.93869634  -2.44140742  -0.35703934
Cl  -0.64321568  -0.69754270  -0.49581842
