43
Energy:   -266.37324859
C   -2.74662606  -0.07739695   2.70367213
H   -1.85702426  -0.65510629   2.56309927
H   -3.23533527   0.05984667   1.76174507
H   -3.40311425  -0.59096916   3.37461619
C   -2.37875881   1.29570695   3.29600597
N   -2.10486493   2.31804521   3.73702544
C   -0.48424413  -2.95609559  -2.75150141
H    0.10070183  -2.07063337  -2.88823128
H   -1.38067849  -2.71287864  -2.22032344
H   -0.73609243  -3.36816101  -3.70631742
C    0.32654107  -3.98748554  -1.94498907
N    0.93020749  -4.75540223  -1.34450398
C    1.14746249   1.09071845   2.17382391
H    0.30988414   0.43122393   2.26563714
H    1.11991436   1.57134851   1.21824297
H    1.10567818   1.82999601   2.94623692
C    2.45273841   0.28414107   2.30530664
N    3.42457566  -0.31639246   2.40320151
C    0.62361402  -2.93434350   1.63610015
H    1.05380207  -3.91366765   1.66371599
H    1.33190833  -2.24508230   1.22605473
H   -0.25523860  -2.94791275   1.02590916
C    0.24994059  -2.49733934   3.06473430
N   -0.02827625  -2.17196988   4.12841737
C    2.61062442  -0.52851739  -1.14742248
H    1.82918392  -1.15057902  -0.76363836
H    2.44382396   0.48319139  -0.84160876
H    3.55297632  -0.86494819  -0.76836271
C    2.61910029  -0.60510931  -2.68549329
N    2.62541096  -0.66213547  -3.83065693
C   -0.30574331   1.74677134  -3.20981190
H   -1.24716437   1.82933732  -2.70800573
H   -0.04071342   0.71433318  -3.30324467
H   -0.38062399   2.18525911  -4.18296166
C    0.77552845   2.48278393  -2.39695469
N    1.58058442   3.03077875  -1.79174554
C   -1.62468690   3.18685073   0.29639848
H   -2.26031192   2.32643896   0.32032790
H   -1.70951051   3.71877474   1.22093128
H   -0.61032360   2.87710738   0.15488791
C   -2.04770507   4.10542804  -0.86501073
N   -2.36266132   4.78935061  -1.72973267
Cl  -1.01450348  -0.34530624  -0.40557369
