10
Energy:   -255.32330052
O    2.03366520  -0.77597336  -0.07467935
H    2.00592367   0.08970117  -0.48219606
H    1.24557250  -0.81138871   0.46743457
O   -1.46272465  -0.10203899  -1.32024364
H   -0.92062239   0.51153917  -0.82438194
H   -1.64514009  -0.81237363  -0.70511670
C   -0.23957575   0.77673321   1.29887037
O   -1.52577947   1.18296452   1.53890059
O    0.19631603   1.31568950   0.11708221
O   -0.20018323  -0.59073774   1.21980294
