10
Energy:   -254.29961897
O   -0.10700752   0.90914641   1.41201669
H    0.43583561   0.15627454   1.17805701
H   -0.81349167   0.90556595   0.76618453
O   -0.61886134   0.89746905  -1.39432537
H   -0.58933975  -0.04223949  -1.21458061
H    0.20198733   1.23608500  -1.03686410
C    0.70501490  -1.69456776  -0.04019882
O    0.39917905  -1.89237347   1.28051906
O    1.47641362  -0.56936659  -0.16655205
O   -0.45177099  -1.53882697  -0.75809255
