10
Energy:   -257.49303069
O    0.08275977  -1.24262939  -1.29216649
H   -0.53635055  -0.52759924  -1.14497227
H    0.71301457  -1.16564461  -0.57586762
O   -1.30338259   1.23409757  -0.24191778
H   -0.36009848   1.18472094  -0.08696982
H   -1.69084485   0.73016549   0.47373388
C    1.28449115   0.06432788   1.27343351
O    0.05458194  -0.06569831   1.86281870
O    1.19355359   0.92696825   0.21292385
O    1.71031974  -1.16073404   0.83108352
