10
Energy:   -255.73095809
O    1.36393931  -0.61546545   1.18135394
H    1.42388719   0.33912829   1.21862175
H    0.44556000  -0.79041388   0.97591702
O    0.35890219   0.27847055  -1.75764966
H   -0.50210282   0.36624576  -1.34875146
H    0.89631448  -0.15510835  -1.09475509
C   -1.65951247   0.22668889   0.53201103
O   -0.72880377   1.15037309   0.92893318
O   -1.10541508  -1.02570915   0.57168489
O   -2.06429719   0.50724820  -0.74674462
