10
Energy:   -254.67815212
O   -0.38253288   1.49441277   1.02911909
H    0.15919792   1.23808685   0.28275684
H   -0.14670608   0.87585953   1.72050137
O   -1.46366704  -0.81276921  -0.89350968
H   -1.34985791   0.10892103  -0.66163377
H   -0.58385454  -1.18528937  -0.83528138
C    1.66682005  -0.61641989  -0.32109200
O    1.69517142  -0.50393158   1.04400908
O    1.07078166   0.49407926  -0.85833371
O    0.95411502  -1.73289828  -0.67224399
