10
Energy:   -254.15297018
O    1.27924895  -0.92750494   0.97176837
H    1.37730956  -0.33929262   0.22302125
H    0.42746452  -0.70088212   1.34504739
O    0.32064514   0.18703397  -1.80520493
H    0.23431908   0.75607735  -1.04037208
H   -0.44753649  -0.38284662  -1.76825969
C   -1.37496599   0.73600969   0.83343621
O   -1.92323496   0.04238934  -0.21310587
O   -0.25906001   1.40449001   0.40333541
O   -1.02821085  -0.13920465   1.82919769
