10
Energy:   -253.72043281
O   -0.09289631   1.41641226   1.14962135
H   -0.88421391   1.08373271   0.72609730
H    0.62664159   1.04795856   0.63704070
O    1.72713353  -0.87710444  -0.42741814
H    0.94006130  -0.54437732  -0.85874379
H    1.39711929  -1.42500776   0.28470855
C   -1.50006541  -0.46411177  -0.74566609
O   -0.99809808  -1.27673510   0.23648996
O   -0.46608478   0.07333025  -1.46617904
O   -2.23164522   0.54389346  -0.17426724
