10
Energy:   -253.65181775
O    0.05381680  -1.40479355   1.25712758
H    0.23060716  -0.46905402   1.35391891
H    0.13048779  -1.56752321   0.31698266
O   -0.43120305   1.88842450   0.47190527
H   -1.16707384   1.41796437   0.08025071
H    0.34584948   1.45202290   0.12265627
C    0.39404016  -0.40330249  -1.60724872
O   -0.89573254   0.03582201  -1.46367142
O    0.46317656  -1.73168196  -1.27903093
O    1.21569985   0.31562515  -0.77911914
