10
Energy:   -253.90999015
O   -1.07973697   0.86458963   1.34014593
H   -1.19521407  -0.03520220   1.03474202
H   -0.63837440   1.30893772   0.61627736
O    1.58012230   0.85069890  -0.62002991
H    0.75683999   0.44247354  -0.88796674
H    2.03757604   0.16837443  -0.12870391
C   -0.60964986  -1.50274700  -0.72290944
O    0.68334140  -1.82597918  -0.40565099
O   -0.64788401  -0.23899578  -1.25070655
O   -1.38229253  -1.54953275   0.40784898
