10
Energy:   -253.90877189
O    1.08602970   1.53451678   0.01347512
H    0.37650258   1.11631468   0.50123543
H    1.79472591   0.89115690   0.02181727
O   -0.83649849  -0.36223373  -1.58543347
H   -0.59669377   0.46834729  -1.17450681
H   -0.88047156  -0.98506038  -0.85990940
C   -0.40042687  -1.01898507   1.42862968
O    0.96690303  -1.03404103   1.34412747
O   -0.92310606  -1.91234898   0.53096260
O   -0.86145813   0.23934815   1.14257397
