10
Energy:   -253.99597899
O    1.15656593   0.89766575  -0.72917254
H    1.24114964   0.05504295  -1.17533872
H    0.86990682   0.67282223   0.15598496
O   -1.66402795   0.44197128  -0.73663400
H   -0.96425464   1.07921692  -0.59357055
H   -1.39788007  -0.32471595  -0.22910287
C    0.23985637  -1.14256305   1.46663384
O    1.47479645  -1.50927509   1.00036819
O   -0.72454412  -1.57901776   0.59684205
O    0.17811210   0.22243433   1.57031603
