10
Energy:   -253.82645717
O   -0.63909115  -0.40242755  -1.75960155
H   -1.11301023  -0.37668758  -0.92835549
H    0.28028650  -0.29670940  -1.51506063
O   -1.29641571   0.27679359   1.27562382
H   -0.96604661   1.17451739   1.30997638
H   -0.52988149  -0.25278187   1.05606299
C    1.80194554  -0.14033243   0.33721258
O    1.54172982   1.03324188   0.99445644
O    1.84720609   0.09252848  -1.01216731
O    0.81134317  -1.04646421   0.61182566
