10
Energy:   -255.19271608
O   -0.74667311   0.46262861   1.72714273
H   -0.61639150   1.20408063   1.13595118
H   -0.85817177  -0.29034913   1.14677697
O    1.75062468   0.05882209  -0.23098631
H    1.21200706  -0.12891422  -0.99967219
H    1.17598394  -0.11829094   0.51376254
C   -0.96842553  -0.52585916  -1.33383755
O   -1.12946318   0.79895131  -1.02415631
O   -0.84101445  -1.25231285  -0.17922496
O    0.15767835  -0.68202647  -2.09887483
