10
Energy:   -254.16514974
O   -0.78560041   1.46355608   0.94856260
H   -0.44239509   1.98840430   0.22539159
H   -0.15513086   0.75017265   1.04767917
O   -1.13287092  -1.27196902  -0.78907735
H   -0.18726739  -1.37766964  -0.89344775
H   -1.22623389  -0.61676826  -0.09753764
C    1.73997360  -0.28318650  -0.08508914
O    1.36159128   0.86683849  -0.72635953
O    1.45928795  -1.36284725  -0.88048025
O    1.05337786  -0.39432576   1.09559480
