10
Energy:   -253.51291801
O   -0.53170321  -2.01827527  -0.79747410
H   -0.92657185  -1.91920461   0.06883740
H   -0.33652288  -1.12353431  -1.07599718
O    1.71854672   0.78416587   0.75923703
H    1.12516413   0.78494294   0.00815226
H    1.14086296   0.74449981   1.52143118
C   -1.10233282   0.92730208  -0.28792902
O   -0.92449533   2.24235697   0.05260415
O   -1.07815213   0.15543359   0.84376578
O   -0.09616597   0.53418070  -1.13105657
