10
Energy:   -257.86487363
O   -0.54394269  -0.79131181   1.39385205
H   -0.20796241  -1.04821767   0.53516207
H   -0.07477400   0.01629962   1.60331889
O   -1.11105061   1.28105492  -0.40345494
H   -0.27318534   1.09301810  -0.82636840
H   -1.30696697   0.49232297   0.10226291
C    1.45007546  -0.51255056  -1.06658994
O    2.07230322  -0.54631550   0.15351289
O    1.19405662   0.78815722  -1.41258474
O    0.27119404  -1.20765916  -0.99699946
