24
Energy:   -112.95711662
O   -0.07065743  -0.65564505  -1.86852341
H   -0.12688704   0.17969925  -1.40455146
H    0.12046436  -1.29758819  -1.18470083
O    0.23521700  -2.23530292   0.39919451
H    0.84596799  -2.23789283   1.13622122
H   -0.58068633  -1.89347824   0.76483025
C    0.13360567   1.54805057   2.54866591
H   -0.29448412   2.41190156   3.01277882
H    1.17577952   1.49556781   2.78534783
H   -0.35863320   0.66887853   2.90874437
C   -0.04176061   1.64563756   1.02179871
N   -0.17232877   1.71829550  -0.11502332
C   -3.50286060   0.11265784  -0.80708617
H   -3.28094340   1.15761870  -0.86799373
H   -4.55582262  -0.02105671  -0.67184386
H   -3.19512821  -0.37058281  -1.71078875
C   -2.74968055  -0.50335147   0.38658562
N   -2.18890377  -0.96199841   1.27532852
C    3.14042807   0.44078809  -1.58421760
H    2.61301801   1.33371814  -1.84768437
H    2.75852996  -0.38033561  -2.15413758
H    4.18206791   0.56672924  -1.79403743
C    2.94996906   0.15617900  -0.08277728
N    2.80816367  -0.05572540   1.03511329
