24
Energy:   -113.14137257
O    1.77805501   0.51096030   0.22846599
H    1.62170760   0.46663064   1.17176988
H    1.79167014  -0.40296979  -0.05574919
O    1.03967804   0.59110006   2.88031041
H    1.55212019   1.08075898   3.52363694
H    0.31616239   1.17573386   2.65456658
C   -0.78175181   2.61377191  -0.88118022
H    0.11962712   2.15691723  -1.23289032
H   -0.75488311   3.66286187  -1.08995626
H   -1.62171202   2.17299026  -1.37623320
C   -0.90881993   2.39579155   0.63800978
N   -1.00342791   2.23349527   1.76911579
C    0.23332800  -2.01367926  -3.32373444
H   -0.60386241  -1.34865014  -3.28191740
H   -0.10153291  -2.99173418  -3.59973414
H    0.93481030  -1.65881652  -4.04960916
C    0.91059685  -2.07389327  -1.94196703
N    1.41485429  -2.11872534  -0.91317838
C   -1.29838147  -1.41766320   1.41745326
H   -0.23772510  -1.55859854   1.42419697
H   -1.78227034  -2.33968289   1.66368558
H   -1.56371125  -0.67216235   2.13768078
C   -1.74661977  -0.96076569   0.01676519
N   -2.08035356  -0.62058473  -1.02611075
