24
Energy:   -111.91417443
O   -0.41376384  -0.61885728  -1.86661900
H   -0.33148041   0.23809793  -1.44818255
H   -0.18432062  -1.24447657  -1.17945951
O    0.25035467  -2.26451253   0.24332497
H    0.97862548  -2.45613188   0.83420186
H   -0.46116703  -1.98845713   0.82104647
C    0.36781137   1.90557490   2.38855832
H    0.38014243   2.93350313   2.68539442
H    1.32067174   1.46382822   2.59304816
H   -0.39104492   1.38559946   2.93505788
C    0.07084250   1.81028741   0.88047020
N   -0.15026433   1.73934155  -0.24236996
C   -3.43085873   0.11553453  -0.56883858
H   -2.89912150   0.93517948  -1.00511587
H   -4.37954056   0.45635774  -0.21003304
H   -3.58076395  -0.64526956  -1.30613408
C   -2.61501728  -0.45968396   0.60381925
N   -2.00758623  -0.88796028   1.47691632
C    2.95870213   0.10506642  -1.57484039
H    2.85067715   1.12750349  -1.87124083
H    2.17306425  -0.47713375  -2.00925398
H    3.90469247  -0.26554355  -1.91047358
C    2.88338958   0.00485550  -0.03995089
N    2.82731595  -0.06975609   1.10284411
