24
Energy:   -117.45716608
O    0.41623666  -2.20790424   0.35746464
H    1.14092660  -1.67436254   0.03129045
H   -0.24531602  -2.16187352  -0.33279695
O    0.14776250  -0.86073714   2.77382600
H    0.21225808  -1.33162902   1.94296319
H    0.22440638  -1.54167010   3.44217311
C   -2.56555954   0.16664187   1.05084603
H   -2.15771699  -0.81582635   0.93543007
H   -3.57462594   0.17799357   0.69510002
H   -2.54888946   0.44051033   2.08506905
C   -1.72423756   1.17015962   0.24045757
N   -1.09783512   1.91732420  -0.36291348
C   -0.05161682   0.24288364  -3.38620068
H   -0.49904216   0.25142533  -4.35812547
H    0.97857578  -0.03377962  -3.47022294
H   -0.12478397   1.21776847  -2.95129240
C   -0.78506133  -0.77432896  -2.49236754
N   -1.33114411  -1.53168997  -1.82686814
C    2.18185430   2.20365102   0.70433624
H    2.04698096   2.01609163   1.74909977
H    1.40140692   2.84616036   0.35364730
H    3.12958468   2.67440337   0.54591134
C    2.13520851   0.87132934  -0.06660027
N    2.10047861  -0.12064471  -0.64059755
