24
Energy:   -117.52673438
O   -0.01066664   2.44952043  -1.66146682
H    0.00369008   2.23906801  -0.72779904
H    0.07698195   3.40213941  -1.69412633
O    0.08266737   2.03139443   1.09112961
H    0.79540693   1.50822542   1.45791069
H   -0.71164232   1.54870586   1.31985590
C   -2.61621657  -0.64681397  -1.37385656
H   -3.67703846  -0.66957319  -1.51183881
H   -2.21187943  -1.62058629  -1.55600494
H   -2.18257900   0.05300046  -2.05731638
C   -2.29548262  -0.21976235   0.07056604
N   -2.05668163   0.09819700   1.14600433
C    2.22840305  -0.13341681  -1.56607782
H    2.25865712   0.58797144  -0.77640455
H    1.90529843   0.34010812  -2.46955811
H    3.20499028  -0.54648990  -1.70942040
C    1.24433159  -1.25868410  -1.19597395
N    0.51164565  -2.09649675  -0.92041479
C    0.28442607  -2.35540915   2.51331291
H    0.70329531  -2.87084933   3.35222301
H    0.31477968  -2.99073689   1.65288487
H   -0.73052019  -2.09233578   2.72679730
C    1.09864634  -1.07779030   2.23702423
N    1.70487033  -0.12654499   2.03131475
