24
Energy:   -114.36578746
O   -0.05209466  -0.48985461  -1.83276595
H   -0.04118463   0.37720159  -1.42739407
H   -0.08696840  -1.09912302  -1.09533278
O    0.05395326  -1.97852662   0.49719670
H   -0.70372509  -1.70040160   1.01178571
H    0.80210167  -1.84163556   1.07837365
C    0.13258155   2.01729546   2.41918031
H   -0.26639413   2.96309967   2.72112895
H    1.14941846   1.93934997   2.74301098
H   -0.44329228   1.23029143   2.85951324
C    0.07215098   1.90092492   0.88477292
N    0.02715767   1.81428176  -0.25766313
C   -3.42239942  -0.00861034  -0.81053286
H   -2.76157596   0.57409786  -1.41770968
H   -4.32018647   0.54431576  -0.62846076
H   -3.66151208  -0.92024703  -1.31713207
C   -2.73720429  -0.33100000   0.53042670
N   -2.22704538  -0.57103375   1.52883205
C    3.21602740  -0.36561597  -1.58097080
H    4.26233426  -0.57416570  -1.66251312
H    3.00062969   0.56907228  -2.05516569
H    2.65884320  -1.14447274  -2.05828305
C    2.82206739  -0.28974096  -0.09414919
N    2.52874626  -0.23324857   1.01285708
