24
Energy:   -117.84837870
O   -0.12351423  -2.19819421  -0.96756803
H    0.75124852  -2.07842182  -0.59787011
H   -0.71871917  -2.00362617  -0.24361623
O   -0.90114567  -0.22356950  -2.72641896
H   -0.60036450  -0.91161640  -2.13282483
H   -0.91588775  -0.63971272  -3.58830024
C    1.42530504  -0.47175616   3.16520690
H    1.40697262   0.59800842   3.15225172
H    2.15647997  -0.80742927   3.87061875
H    0.46163308  -0.84160289   3.44707362
C    1.78631256  -0.99599725   1.76290706
N    2.05509908  -1.38631857   0.71883108
C   -2.71756704   1.26600915   0.46322643
H   -3.72571290   1.31447958   0.81846256
H   -2.71270827   1.32390115  -0.60519484
H   -2.15736259   2.08322197   0.86724781
C   -2.07985810  -0.06325119   0.90819190
N   -1.60505481  -1.05294593   1.23948892
C    1.74517120   1.48292792  -1.45799523
H    2.47613450   2.22266993  -1.70973833
H    0.98622958   1.46039248  -2.21191755
H    2.21514335   0.52365225  -1.39622584
C    1.10902935   1.83132709  -0.09948812
N    0.63539283   2.09072611   0.91198218
