24
Energy:   -118.04399379
O   -0.32484774  -2.12911305   0.20672321
H   -0.62185770  -1.69897161   1.00859308
H    0.62887468  -2.05158407   0.23191543
O   -2.05692092  -1.15005040  -1.67841233
H   -1.44960764  -1.50888576  -1.03138867
H   -2.39428230  -1.91659349  -2.14191079
C   -2.14239958   1.89865401   0.80130783
H   -3.05112677   2.18535412   1.28805021
H   -2.35607698   1.59284370  -0.20154864
H   -1.46896218   2.72998465   0.78486003
C   -1.49622132   0.72966169   1.56780023
N   -1.01511224  -0.14070624   2.13848866
C    0.92634101   0.22960430  -2.68348608
H   -0.02417811   0.26526868  -3.17352857
H    1.11256744  -0.76594608  -2.33837994
H    1.69338704   0.51791296  -3.37153956
C    0.92237826   1.19617534  -1.48460131
N    0.91942780   1.91583143  -0.59197710
C    2.40731961   0.62020618   2.36875566
H    3.39196372   0.73329807   2.77197568
H    1.72998755   0.35051009   3.15194426
H    2.09395897   1.54371290   1.92848354
C    2.41602510  -0.48356211   1.29487495
N    2.42250672  -1.30536777   0.49532195
