24
Energy:   -117.96361770
O    2.32587410   1.42883585  -0.94179238
H    2.80295455   2.22525359  -1.17491225
H    1.40533271   1.65096617  -1.08141158
O   -0.31102301   2.11683215  -1.22532207
H   -0.50750246   2.09038204  -0.28887770
H   -0.95021228   1.52460083  -1.62146722
C    1.22376417  -1.61003404  -1.74932153
H    0.76186464  -0.71375267  -2.10741190
H    1.11979829  -2.38235328  -2.48254262
H    2.26243167  -1.42803507  -1.56781317
C    0.54328139  -2.05039009  -0.43988282
N    0.03663102  -2.37825518   0.53505382
C   -3.18666607  -1.09895054   0.63781360
H   -2.58525952  -1.92659723   0.95120041
H   -4.19071298  -1.42992773   0.47275904
H   -3.17986199  -0.34530712   1.39733607
C   -2.61695674  -0.51608039  -0.66882088
N   -2.19278224  -0.08210707  -1.64166964
C    1.27768640  -0.05163235   2.76482201
H    1.08731236  -1.09902598   2.65700513
H    1.29497487   0.20261635   3.80403219
H    2.22301023   0.18632542   2.32364398
C    0.16623862   0.74742357   2.05927721
N   -0.66128477   1.34235703   1.53396704
