24
Energy:   -116.68169403
O    0.01164361  -0.41312585   3.10999894
H    0.18877726   0.29672801   2.49277694
H    0.51393901  -0.18254550   3.89151277
O    0.59190393   1.55803242   1.31332447
H    1.21046222   1.18468940   0.68544512
H   -0.06633535   1.99353582   0.77176220
C   -2.53330648  -0.50387524   0.88111186
H   -2.28037560  -1.17044702   1.67898917
H   -3.59196320  -0.51824856   0.72639130
H   -2.22319699   0.48858097   1.13362300
C   -1.81998814  -0.95221914  -0.40798266
N   -1.28889021  -1.28603156  -1.36777213
C    0.09530542   1.53209530  -3.12591718
H    1.15490715   1.65494743  -3.04194277
H   -0.26390497   2.09522221  -3.96183288
H   -0.13350028   0.49663066  -3.26860569
C   -0.58342658   2.03509422  -1.83831671
N   -1.08877341   2.40959978  -0.87963964
C    1.85254826  -2.52095197  -0.47739633
H    0.81586578  -2.78214795  -0.52173913
H    2.26490947  -2.85428337   0.45198384
H    2.37314761  -2.98869257  -1.28677519
C    2.00183053  -0.99207743  -0.58628823
N    2.11297797   0.14623916  -0.66736319
