24
Energy:   -113.39004375
O   -1.74962538  -0.81066540  -2.40817956
H   -1.24121317  -1.34297814  -1.79630374
H   -2.26207207  -0.22632357  -1.84945344
O   -0.08702392  -1.77532230  -0.39061989
H    0.39200963  -0.95228836  -0.48743844
H    0.18588006  -2.11291421   0.46248442
C   -0.15115104   2.18050805  -2.52575729
H   -0.40938327   1.49418415  -3.30497215
H    0.50267709   2.93268009  -2.91517364
H   -1.03963995   2.64132551  -2.14742700
C    0.55824773   1.42250196  -1.38831272
N    1.08642735   0.85813197  -0.54143353
C   -1.76036969   0.08562950   2.05130965
H   -0.77459789   0.46651774   2.21887539
H   -1.73144775  -0.98384928   2.03464351
H   -2.40762543   0.41270567   2.83806265
C   -2.28920668   0.60594086   0.70178843
N   -2.68294986   0.99333631  -0.30299146
C    3.36303394  -0.26151856   2.00425855
H    3.14733649   0.57378322   1.37129274
H    4.15699895  -0.83741601   1.57663632
H    3.65803505   0.09018310   2.97078811
C    2.10617759  -1.14105592   2.13963272
N    1.17039091  -1.79591146   2.24042494
