24
Energy:   -119.87287164
O    1.38254560   1.64485801   1.72921444
H    1.26935217   0.72540496   1.97009861
H    1.91812098   2.01289005   2.43202543
O    0.98357558  -0.99312178   2.25390841
H    0.03451536  -1.00343922   2.12977098
H    1.33745549  -1.31775110   1.42588869
C   -1.75257152   1.92776675   0.16729802
H   -1.72518552   1.82573159  -0.89747379
H   -0.90549464   2.49446705   0.49319773
H   -2.65126815   2.43266262   0.45421893
C   -1.71769296   0.53232117   0.81777103
N   -1.69172428  -0.50665148   1.30207776
C   -1.55679303  -2.78055441  -1.29417864
H   -1.74060317  -3.55512760  -2.00912647
H   -2.35413268  -2.75689592  -0.58102449
H   -0.63281991  -2.97257803  -0.78989728
C   -1.47450124  -1.42342570  -2.01738658
N   -1.41323125  -0.41298168  -2.55584776
C    1.73196402   1.06574130  -1.74285833
H    1.66962985   1.84436734  -1.01158812
H    0.89920885   1.13644522  -2.41100417
H    2.64241957   1.16766476  -2.29565250
C    1.70984813  -0.30335498  -1.03809860
N    1.69338184  -1.32270938  -0.51337294
