24
Energy:   -112.88967892
O   -0.19928438  -0.69957091  -1.92818334
H   -0.37077657   0.18722687  -1.61130484
H    0.19323656  -1.14994256  -1.18030331
O    0.72407425  -1.69054521   0.51496721
H    1.37849803  -1.94764731   1.16447462
H   -0.10759694  -1.71902630   0.98798275
C   -0.02231640   1.75645005   2.20963510
H    0.91052135   2.25720558   2.36441822
H    0.04688970   0.75278520   2.57400646
H   -0.79675361   2.27433907   2.73588320
C   -0.34990038   1.73489041   0.70503418
N   -0.59380154   1.71883829  -0.41520959
C   -3.41363510  -0.62362276  -0.75584433
H   -3.46667587   0.44288811  -0.82397223
H   -4.40141876  -1.02477783  -0.66497557
H   -2.94953995  -1.01466961  -1.63709183
C   -2.58357456  -1.01842331   0.47976566
N   -1.96555677  -1.31237027   1.39973346
C    2.88626288   0.54002037  -1.35555920
H    3.81582456   0.86994649  -1.77024464
H    2.09278799   1.15636009  -1.72355653
H    2.70962181  -0.47629621  -1.63980846
C    2.94463084   0.64084122   0.18002810
N    2.98808844   0.71590693   1.32334263
