24
Energy:   -114.45744636
O   -1.02720208   0.93011826   1.33569047
H   -1.86356193   1.02418001   0.87974481
H   -0.86818823  -0.01362014   1.35313393
O   -3.24597239   0.78508344  -0.30588097
H   -2.69211219   0.51706464  -1.03911807
H   -3.90838155   0.09711660  -0.24147925
C    2.02912653   0.32472867   2.55555663
H    2.88810318   0.45290615   3.18056049
H    1.42326107  -0.46883777   2.94036624
H    1.46121662   1.23143688   2.53950496
C    2.48220216  -0.02259125   1.12527996
N    2.81953756  -0.28118672   0.06037397
C    0.61274159  -2.75521771  -1.30664548
H   -0.02870411  -2.48438956  -2.11911069
H    0.70656256  -3.82032225  -1.26603723
H    1.57804922  -2.31746613  -1.45311678
C    0.01158940  -2.24208757   0.01506308
N   -0.43599573  -1.86003887   0.99913517
C    0.78415928   1.91332126  -1.56675351
H    0.75519033   2.11405312  -0.51615002
H    0.63072910   2.82341884  -2.10812276
H    1.73719272   1.50106435  -1.82496001
C   -0.32498000   0.90789724  -1.92804644
N   -1.15078462   0.15931336  -2.19704544
