60
Energy:   -251.71239808
C    3.03400078   1.04258522  -3.07522712
H    3.31045483   0.07778382  -3.44621445
H    3.71839082   1.77679992  -3.44595363
H    2.04362528   1.28042665  -3.40307907
C    3.07650404   1.03214382  -1.53584918
N    3.10814965   1.02436972  -0.38971233
C   -0.63580542  -3.80107532   2.59501063
H   -0.82533478  -4.34549400   1.69357450
H   -0.78285247  -4.44399912   3.43758125
H    0.37282339  -3.44393714   2.59061394
C   -1.60306022  -2.60619961   2.68606109
N   -2.32322539  -1.71656033   2.75385229
C    3.40954338   0.93021026   2.94016681
H    4.22434116   0.60826204   2.32587526
H    3.77586777   1.18924157   3.91156185
H    2.94331469   1.78440904   2.49533611
C    2.38062936  -0.20864613   3.06642864
N    1.61455610  -1.05657648   3.16043631
C    2.31452848  -2.44287514   0.06557448
H    1.28931532  -2.29792295   0.33543928
H    2.90279100  -1.63780251   0.45378110
H    2.66330438  -3.36850131   0.47358265
C    2.44143446  -2.47799101  -1.46878589
N    2.53592172  -2.50413637  -2.61118693
C   -3.78247492  -0.71406859  -0.25858125
H   -3.60630313   0.27379203   0.11289565
H   -3.03269768  -1.37665833   0.12050713
H   -4.74776358  -1.04808066   0.06009232
C   -3.72585518  -0.70148777  -1.79748863
N   -3.68369922  -0.69212077  -2.94327513
C   -0.95934378  -2.87528944  -3.44351371
H    0.02977646  -3.09777553  -3.78562666
H   -1.20771910  -1.86706801  -3.70177392
H   -1.65539514  -3.54368543  -3.90574568
C   -1.02366920  -3.04417071  -1.91415392
N   -1.07156240  -3.16991048  -0.77547604
C   -2.19514257   2.45635916  -3.53196357
H   -3.09886467   2.71962058  -4.04076605
H   -1.93247789   1.44695241  -3.77071945
H   -1.40805715   3.11223679  -3.84054121
C   -2.40531408   2.58627740  -2.01191449
N   -2.56179633   2.68300743  -0.88016886
C   -1.31254514   0.91112794   4.56446713
H   -2.22022147   0.84226380   4.00207795
H   -1.52770445   1.28159122   5.54495809
H   -0.86510444  -0.05792101   4.63956730
C   -0.34047960   1.87175843   3.85462375
N    0.38326739   2.58699150   3.32611309
C   -0.31646494   0.36277774   0.62560746
H   -1.19013818   0.93204980   0.86545027
H    0.55019731   0.86262011   1.00501915
H   -0.39074344  -0.60830943   1.06874571
C   -0.19946865   0.22169149  -0.90344668
N   -0.11235959   0.11664637  -2.04189698
C    0.72393593   3.87986218   0.21485301
H   -0.26593542   3.58976687   0.49928159
H    0.91057454   4.88086307   0.54358138
H    1.43317496   3.21807551   0.66642526
C    0.85921683   3.80916754  -1.31756382
N    0.95993961   3.75653216  -2.45851780
