60
Energy:   -251.71125273
C    2.80020637   0.81470816  -3.31932624
H    2.24832541  -0.07404818  -3.54391423
H    3.76516709   0.76094797  -3.77852089
H    2.27312521   1.66648383  -3.69557448
C    2.96428344   0.94530738  -1.79367144
N    3.08644628   1.04254443  -0.65775210
C   -0.15203760  -0.34044925   4.76208104
H    0.59647359  -1.02099404   4.41352693
H   -1.12145046  -0.76475836   4.60365262
H   -0.00914970  -0.15748039   5.80659266
C   -0.03975588   0.98637845   3.98843959
N    0.04384297   1.97426197   3.41242836
C    3.61262997   2.08841763   2.54555503
H    4.13278062   2.16006344   1.61324052
H    4.25026520   2.42428086   3.33645092
H    2.73443554   2.69877588   2.51184360
C    3.21022656   0.62344704   2.79761186
N    2.91061892  -0.46729016   2.98527962
C    3.04556961  -2.54914206   0.12488105
H    2.14815500  -3.01432046   0.47581731
H    3.07427610  -1.53274946   0.45807935
H    3.89406730  -3.07491832   0.51025112
C    3.07465757  -2.58575377  -1.41440888
N    3.09631488  -2.61301285  -2.56048020
C   -3.37082204  -2.08080414  -0.07635081
H   -3.26887159  -1.07067929   0.26151613
H   -2.57149248  -2.67172758   0.31960479
H   -4.30677519  -2.47631699   0.25900032
C   -3.32091854  -2.11489802  -1.61516439
N   -3.28376312  -2.14028247  -2.76088105
C   -0.19971446  -3.69098221  -3.29662585
H   -0.50771830  -2.70384346  -3.57156385
H   -0.86515742  -4.40660986  -3.73247195
H    0.79447929  -3.86616538  -3.65129292
C   -0.22957461  -3.82962266  -1.76316988
N   -0.25180685  -3.93284678  -0.62144222
C   -2.46414416   1.21317505  -3.47497288
H   -2.03224601   0.25482239  -3.67478369
H   -1.80095259   1.98109269  -3.81464703
H   -3.39935029   1.29690668  -3.98807871
C   -2.69425741   1.36674843  -1.96002631
N   -2.86558719   1.48109079  -0.83207973
C   -3.41408756   2.58821563   2.34409660
H   -3.87186341   2.73112713   1.38758326
H   -2.45793725   3.06832360   2.35721149
H   -4.03647833   3.01207107   3.10427775
C   -3.23559649   1.08149563   2.60779299
N   -3.10270177  -0.04032589   2.80412694
C   -0.05896345  -0.60747334   0.80644123
H   -0.90224209  -0.05351755   1.16269157
H    0.83987016  -0.18231857   1.20171412
H   -0.14137485  -1.62598064   1.12385316
C   -0.02031019  -0.55077139  -0.73202905
N    0.00846891  -0.50855421  -1.87749011
C    0.21307961   3.03442822   0.21050791
H    0.26705647   4.00499256   0.65771205
H    1.03794047   2.44094791   0.54559713
H   -0.70437970   2.56196363   0.49325287
C    0.26866594   3.17170517  -1.32235386
N    0.31005249   3.27391411  -2.46363912
