60
Energy:   -251.78268748
C   -1.63033201  -2.85285125  -2.37981889
H   -1.44713175  -2.31259315  -1.47457912
H   -1.52092841  -3.90154204  -2.19767180
H   -2.62462880  -2.65178353  -2.72017863
C   -0.62041692  -2.41047466  -3.45498142
N    0.13151077  -2.08110518  -4.25548879
C   -2.36894142   3.81434595  -1.40175951
H   -2.53059299   3.34783816  -2.35104315
H   -2.68265526   4.83625441  -1.44851243
H   -2.93406448   3.30172938  -0.65158669
C   -0.87141315   3.75276873  -1.04789889
N    0.24356471   3.70692170  -0.78443358
C    0.81133063   0.66888739  -2.32124553
H    1.32886786   1.58943502  -2.14906118
H    0.01812842   0.83111079  -3.02082606
H    1.49300210  -0.05499756  -2.71648430
C    0.22698373   0.15235880  -0.99333856
N   -0.20808909  -0.23222022  -0.00465146
C    3.64611244   3.50434524  -0.55772607
H    4.64422500   3.80926604  -0.79372352
H    2.96983453   4.30778752  -0.76273287
H    3.38232407   2.65537442  -1.15317828
C    3.56256903   3.13101363   0.93399911
N    3.50036716   2.85305128   2.04465631
C    3.45149230  -2.42158435  -3.04031393
H    3.95926859  -1.53730592  -2.71609938
H    2.88894557  -2.20592121  -3.92458180
H    4.16834655  -3.18735401  -3.25153868
C    2.49858484  -2.90254295  -1.93024808
N    1.78910192  -3.26063849  -1.10375359
C   -3.20507838  -0.71210807   3.71851305
H   -3.49318077   0.26134428   3.38044840
H   -3.61277218  -0.88663645   4.69228135
H   -3.57663990  -1.45018833   3.03874937
C   -1.66887844  -0.79967771   3.78192667
N   -0.52510775  -0.86487728   3.82914099
C    0.21976354   2.28959709   2.38070316
H    0.74619409   1.89854667   1.53521477
H    0.41936679   1.68101245   3.23783931
H    0.54449468   3.29121221   2.57100798
C   -1.29255518   2.28674727   2.09004191
N   -2.41854521   2.28462545   1.87363140
C   -3.74463534  -0.15929968  -0.01031707
H   -4.31456816  -1.06114921  -0.09244006
H   -4.36411393   0.61955866   0.38277968
H   -2.91476460  -0.32030903   0.64564759
C   -3.22716464   0.24944953  -1.40198807
N   -2.84188419   0.55378189  -2.43815038
C   -0.04307951  -3.43081196   1.63137789
H    0.08413443  -3.49794162   2.69166577
H    0.49404778  -2.58288583   1.26068307
H    0.33226816  -4.32032211   1.17009175
C   -1.53945698  -3.27434524   1.30278599
N   -2.65357802  -3.15784865   1.05813439
C    2.70941749  -0.63794026   2.03199597
H    3.12151952   0.05479880   2.73568958
H    3.00427236  -1.63213181   2.29570576
H    1.64184146  -0.56718946   2.04521802
C    3.22844041  -0.30590167   0.62062586
N    3.61487657  -0.05868385  -0.43020334
