60
Energy:   -251.61998251
C    2.68576457   1.31238429  -3.30117732
H    1.65417289   1.39824346  -3.57200381
H    3.07528107   0.38629013  -3.66931532
H    3.23538418   2.12525650  -3.72785770
C    2.81883172   1.35176632  -1.76744260
N    2.91790626   1.38108803  -0.62550739
C    0.01792283  -3.76922502   2.72269947
H   -0.16097280  -4.35162873   1.84309589
H    0.00767312  -4.40760614   3.58134002
H    0.97172002  -3.29045305   2.64557998
C   -1.08260619  -2.70127929   2.86386524
N   -1.90200008  -1.90614514   2.96896958
C    3.44154103   1.44240810   2.67670360
H    4.25334846   1.20508798   2.02130445
H    3.82810939   1.77787011   3.61634674
H    2.84488887   2.21579025   2.23991380
C    2.57550728   0.18806272   2.89625592
N    1.93070579  -0.74585443   3.05972260
C    2.59702092  -2.14172106  -0.03716396
H    3.08719255  -3.00562162   0.36071514
H    1.58185274  -2.12053972   0.30030307
H    3.10230233  -1.25956154   0.29657902
C    2.62539604  -2.19848569  -1.57585581
N    2.64652261  -2.24074954  -2.72148184
C   -3.68092729  -1.18724873   0.05027845
H   -3.60931313  -0.17308056   0.38379685
H   -2.82585824  -1.73489068   0.38768668
H   -4.56905684  -1.63177255   0.44842863
C   -3.73641581  -1.21891579  -1.48839573
N   -3.77772955  -1.24249335  -2.63400859
C   -0.76782316  -3.08412479  -3.30058034
H   -0.11411925  -2.29338809  -3.60440076
H   -1.76319835  -2.87041084  -3.62990338
H   -0.43877429  -4.00535764  -3.73411923
C   -0.74965628  -3.20389642  -1.76535244
N   -0.73613021  -3.29307185  -0.62230548
C   -2.68953574   2.08431600  -3.42917412
H   -3.28285369   1.26736072  -3.78337473
H   -1.66208762   1.91066488  -3.67226822
H   -3.01755715   2.99090516  -3.89328309
C   -2.84225332   2.20523822  -1.90154355
N   -2.95595850   2.29527031  -0.76415316
C   -1.12518066   0.89778305   4.61749651
H   -1.32129159   1.27745381   5.59846073
H   -0.55446230  -0.00425737   4.69167693
H   -2.05146564   0.69406517   4.12212368
C   -0.33117596   1.94280819   3.81184211
N    0.25999662   2.72087691   3.21199580
C   -0.33041964   0.32782932   0.62960098
H   -1.24991384   0.79541859   0.91383833
H    0.49147061   0.93542432   0.94618247
H   -0.26164923  -0.63444533   1.09241544
C   -0.28892080   0.16532360  -0.90123857
N   -0.25802304   0.04433070  -2.04101820
C    0.23186618   3.93153535   0.05195162
H    1.04445019   3.37620085   0.47172657
H   -0.69470585   3.53237196   0.40836705
H    0.31344135   4.95799824   0.34284426
C    0.27851655   3.82795937  -1.48385297
N    0.31324987   3.75084235  -2.62732930
