60
Energy:   -251.72165997
C    1.21038150   3.70976065   3.16786208
H    0.45357390   3.20311367   3.72951256
H    1.66318340   4.46309557   3.77807190
H    1.95506305   3.00680498   2.85769792
C    0.57613658   4.36644629   1.92766155
N    0.10391240   4.85537860   1.00427588
C    2.93082432  -0.39430587   2.97922787
H    3.49622992  -0.73416867   3.82167073
H    1.89639545  -0.33195996   3.24562790
H    3.28112640   0.57168574   2.68081916
C    3.10169441  -1.38519658   1.81280641
N    3.22891495  -2.12295975   0.94435261
C   -2.76366806   3.24634035   0.22874184
H   -2.56624111   4.29033638   0.10227023
H   -2.28100942   2.89719045   1.11758045
H   -3.81902087   3.09035090   0.31118470
C   -2.22356282   2.47078817  -0.98715501
N   -1.82142992   1.89335431  -1.89244548
C   -3.00279743  -1.42271373  -1.87939854
H   -2.07737165  -1.07946962  -2.29252175
H   -3.56611929  -0.58601299  -1.52232791
H   -3.56281513  -1.93359500  -2.63456713
C   -2.71794903  -2.38566686  -0.71184441
N   -2.50586644  -3.10262924   0.15745272
C   -0.65906712   0.09432896  -4.68750132
H   -1.41998619   0.74693930  -4.31333277
H   -0.96549966  -0.92252209  -4.55707080
H   -0.50222738   0.28892208  -5.72790216
C    0.65139168   0.33849513  -3.91634594
N    1.62708782   0.52028793  -3.34218571
C    0.28267201  -0.38617470  -0.13544647
H    0.03256371  -1.41192776   0.03826787
H    1.33605931  -0.29915532  -0.30188540
H   -0.24491302  -0.03121961  -0.99600443
C   -0.11412191   0.45403157   1.09264474
N   -0.40955302   1.07960332   2.00701446
C    1.71900509   3.33233398  -1.61280763
H    2.32331480   3.23815737  -2.49078299
H    1.61754164   4.36681570  -1.35893398
H    0.75182353   2.91425206  -1.79899683
C    2.38730204   2.58072162  -0.44659236
N    2.88487949   2.02111205   0.42170792
C    2.83773923  -2.60184400  -2.33577676
H    3.19079880  -3.32515158  -1.63074112
H    3.07231097  -1.61836432  -1.98557265
H    3.31014727  -2.76571189  -3.28175618
C    1.31207229  -2.74045030  -2.49303025
N    0.17614389  -2.84364899  -2.61011262
C   -2.93127249  -1.14745716   3.12274594
H   -2.73945323  -2.14801915   2.79566605
H   -3.62049866  -1.16565322   3.94099729
H   -2.01511218  -0.69349891   3.43813663
C   -3.53396541  -0.33456622   1.96189730
N   -3.98269769   0.27066803   1.09759272
C    0.51365674  -4.41790059   0.97577556
H    0.06157476  -4.06171606   0.07374748
H    0.06785063  -5.34988360   1.25427810
H    1.56272989  -4.55737658   0.81800650
C    0.29606289  -3.38843821   2.10025771
N    0.13405438  -2.62195667   2.93748579
