60
Energy:   -251.62539354
C    2.04527673  -3.08568520  -1.88203031
H    1.71444303  -3.06611619  -0.86464823
H    3.08673559  -3.32910516  -1.91379906
H    1.49002566  -3.82282918  -2.42352278
C    1.82165378  -1.70256840  -2.52123349
N    1.65515634  -0.67277508  -2.99714932
C   -1.91134106  -0.78515132   3.36227807
H   -2.23479361  -0.65299297   2.35093599
H   -2.62400370  -0.34124010   4.02556825
H   -1.82759418  -1.83018029   3.57628744
C   -0.54064016  -0.11019918   3.55519944
N    0.47990896   0.39233337   3.69883817
C    0.83755086   2.72677605  -2.93421161
H    0.82568133   3.68471637  -3.41077181
H    1.42744883   2.04752454  -3.51346706
H    1.25964478   2.82052719  -1.95546418
C   -0.60188024   2.19073997  -2.82329080
N   -1.67360212   1.79163674  -2.74070522
C   -3.67416758   2.88911167  -0.24619410
H   -4.57673553   3.45050416  -0.12327236
H   -3.87710775   2.00847766  -0.81907987
H   -2.94872140   3.48742192  -0.75673477
C   -3.12716152   2.48746061   1.13621713
N   -2.71989064   2.18841313   2.16548512
C   -0.36894790  -0.03382766  -0.08321838
H   -0.45595480  -0.35283341  -1.10084567
H   -1.15512630   0.65590866   0.14280468
H   -0.44208839  -0.88263467   0.56414258
C    0.99305626   0.65424626   0.12438448
N    2.00713027   1.16654857   0.27895424
C    3.25443321  -1.36583743   2.56517272
H    4.12630945  -1.96069950   2.38947094
H    3.18039618  -1.14101226   3.60866266
H    3.32594241  -0.45498794   2.00827171
C    2.00321914  -2.14420465   2.11772684
N    1.07163339  -2.72373443   1.78458305
C   -2.13706360  -3.91097390   1.07216891
H   -2.81355705  -3.13893432   1.37418163
H   -1.32007119  -3.95904966   1.76145203
H   -2.64977340  -4.85006727   1.06070677
C   -1.60135726  -3.60134760  -0.33806166
N   -1.20249955  -3.37081674  -1.38804243
C   -3.35354120  -1.04853101  -2.73866871
H   -3.87548629  -1.90735113  -3.10595810
H   -2.30830022  -1.15213722  -2.94271807
H   -3.72622534  -0.17039523  -3.22331619
C   -3.57030990  -0.92721540  -1.21883522
N   -3.73170406  -0.83689042  -0.08725010
C    0.56942874   3.57175278   2.48576640
H    0.91612731   4.46959950   2.95328276
H    1.37034894   2.86407579   2.43458835
H   -0.23497149   3.15924371   3.05819598
C    0.07544970   3.89175580   1.06267723
N   -0.29234014   4.13001259   0.00312266
C    4.65669766   0.90538415  -1.66097824
H    4.57509832   1.66868529  -0.91558364
H    3.80949964   0.95148601  -2.31292090
H    5.55167557   1.05485244  -2.22805218
C    4.70537245  -0.47467618  -0.97931538
N    4.74161304  -1.50219382  -0.47178639
