60
Energy:   -251.64045810
C    3.10262033   1.44962719  -1.42730929
H    2.07312714   1.73929161  -1.39356814
H    3.29159810   0.90905161  -2.33117019
H    3.72002262   2.32305503  -1.39837276
C    3.42373705   0.55366694  -0.21663209
N    3.66282304  -0.11341619   0.68477212
C    0.48969373  -1.51357749   1.66953530
H    0.36433483  -2.55848084   1.47624193
H   -0.20373736  -1.20464329   2.42359900
H    1.48847910  -1.33058467   2.00693788
C    0.23063449  -0.71770356   0.37683542
N    0.03775310  -0.12513924  -0.58563840
C    3.61053640   1.83928162   3.42885248
H    3.86671352   2.29603616   4.36193809
H    3.86676756   2.49916584   2.62648256
H    4.14930569   0.92108772   3.32139689
C    2.09762377   1.55366883   3.39537529
N    0.97119155   1.34101712   3.37044999
C    3.07993794  -3.35803208  -0.58454982
H    2.32519014  -4.10558508  -0.45640755
H    3.12797907  -2.74582366   0.29168759
H    4.02695113  -3.83060861  -0.74182831
C    2.73407556  -2.48307855  -1.80374444
N    2.47656530  -1.83163587  -2.71149026
C   -0.80256954  -2.77816909  -3.00294588
H   -0.70744774  -1.72361188  -2.84879949
H   -1.77548162  -2.99547966  -3.39168393
H   -0.05898756  -3.10534020  -3.69932509
C   -0.60940954  -3.51229787  -1.66304135
N   -0.46559314  -4.05889012  -0.66542152
C   -3.84726685  -3.13083628  -0.18907555
H   -4.88161863  -3.32043616   0.00858189
H   -3.28937397  -4.03589185  -0.06853909
H   -3.73532832  -2.77366772  -1.19147242
C   -3.32262908  -2.06940455   0.79566700
N   -2.93201242  -1.27912038   1.52885260
C    0.09019717   0.83689292  -3.94726611
H    0.69800753   0.18066453  -3.36004294
H    0.60304944   1.08233573  -4.85370942
H   -0.83492133   0.35261949  -4.18079148
C   -0.19124069   2.12511110  -3.15172438
N   -0.40078397   3.08424808  -2.55940739
C   -2.31364038   0.91485589   4.03634330
H   -3.13877962   0.35471958   4.42401938
H   -1.78158723   1.37172950   4.84448006
H   -1.65736776   0.25983588   3.50234506
C   -2.83635845   2.00621810   3.08382329
N   -3.22554581   2.81878687   2.37462885
C   -3.06027300   1.49261545  -0.71295893
H   -4.04035190   1.65773772  -0.31662555
H   -2.70021498   2.39491446  -1.16141607
H   -2.40088822   1.19914095   0.07696734
C   -3.11692767   0.37870863  -1.77484493
N   -3.15910965  -0.45064562  -2.56546732
C   -0.20544475   3.44958002   0.81707024
H   -0.39570347   2.40558916   0.68001227
H   -0.67377243   4.00372804   0.03063000
H   -0.60214418   3.76365399   1.75987785
C    1.31338068   3.70255623   0.78927909
N    2.44421525   3.89090853   0.76858732
