60
Energy:   -251.68954913
C   -0.17053925   0.47906129  -0.35804632
H   -0.13682907   0.91274311   0.61954454
H   -1.18613404   0.26583442  -0.61881557
H    0.24322435   1.16528944  -1.06712298
C    0.64713179  -0.82588691  -0.36919328
N    1.25592505  -1.79748017  -0.37749269
C   -2.44248895   2.26552213   3.41058664
H   -1.72588339   1.80476350   4.05794907
H   -3.12355266   1.52442685   3.04750387
H   -2.98396299   3.01270976   3.95226516
C   -1.71432353   2.91990289   2.22182218
N   -1.17217127   3.40711911   1.33673300
C    4.33920662  -0.21782348  -0.93214336
H    3.74137763  -1.01678352  -1.31836029
H    5.37405301  -0.43589498  -1.09473753
H    4.08372306   0.69285173  -1.43244117
C    4.07793315  -0.06474958   0.57779192
N    3.88340317   0.04922089   1.70200737
C    2.08430942   2.92732759   2.10254596
H    3.03527082   2.85275462   2.58732578
H    1.46531480   2.10808949   2.40353382
H    1.61505116   3.84877019   2.37757199
C    2.28190688   2.88755878   0.57579330
N    2.42902716   2.85794909  -0.56094345
C   -2.96885643  -1.63144940   1.84654550
H   -2.62083453  -2.40404536   2.49990330
H   -4.02038196  -1.49217273   1.98724079
H   -2.45547463  -0.71910348   2.06782168
C   -2.69522264  -2.03303988   0.38522772
N   -2.49148985  -2.33204224  -0.70278978
C    0.00990294  -4.87470849  -0.39207566
H    1.02681033  -4.61512537  -0.60044106
H   -0.63786618  -4.33814278  -1.05343146
H   -0.12620588  -5.92635750  -0.53493168
C   -0.32548588  -4.50697857   1.06528121
N   -0.57519810  -4.23318692   2.15034964
C   -0.65493038  -2.07116733  -3.62146773
H    0.28445552  -2.12118929  -3.11161274
H   -0.52216681  -2.36059156  -4.64298941
H   -1.35179804  -2.73290317  -3.15095712
C   -1.19505662  -0.63021106  -3.56223365
N   -1.59720515   0.44264638  -3.51813119
C   -3.15431884   2.70812318  -1.56784411
H   -2.08919893   2.78575317  -1.50156178
H   -3.58809337   3.68373306  -1.49767210
H   -3.42206308   2.26526642  -2.50437494
C   -3.67763360   1.82962621  -0.41633000
N   -4.06726522   1.17554529   0.44102460
C    1.80624240  -2.10337696   3.19860059
H    1.40829478  -2.91944771   3.76478643
H    2.70454183  -1.75229835   3.66195900
H    2.02299840  -2.43177028   2.20357609
C    0.77414136  -0.96149296   3.14891785
N    0.00569522  -0.11130842   3.11192680
C    1.19260690   2.62104240  -3.69913599
H    1.05102680   2.88055148  -4.72748918
H    1.88560722   3.30240948  -3.25148820
H    0.25575948   2.67610322  -3.18514734
C    1.74733490   1.18763509  -3.60311354
N    2.16035512   0.12039819  -3.53162047
