60
Energy:   -254.66506940
C    2.91560403   1.62486615  -3.11695766
H    3.35270638   0.71798342  -3.47945655
H    3.46357002   2.46167821  -3.49692862
H    1.89865230   1.68624753  -3.44397538
C    2.96149238   1.63737224  -1.57769230
N    2.99565834   1.64668360  -0.43163927
C    0.22381230  -3.44636343   3.03394578
H   -0.15828162  -4.43134628   3.20339544
H    0.91569353  -3.19378223   3.81009152
H    0.72231402  -3.41507814   2.08768136
C   -0.93952171  -2.43727818   3.03490869
N   -1.80567676  -1.68596834   3.03562561
C    2.77105889   1.84580979   3.15262731
H    2.51121567   2.28446495   2.21190241
H    3.81083425   2.00757049   3.34653387
H    2.18908523   2.29649909   3.92921273
C    2.48614613   0.33300139   3.10978489
N    2.27401563  -0.79335323   3.07788677
C    3.26367195  -1.97265126   0.07282917
H    2.35952456  -2.40019573   0.45312301
H    3.36774548  -0.97317216   0.44040135
H    4.09854277  -2.55963781   0.39428926
C    3.21359025  -1.95098773  -1.46620381
N    3.17630214  -1.93485824  -2.61208382
C   -3.33502932  -1.85308859   0.02913382
H   -2.51277698  -2.44835953   0.36744399
H   -4.25389983  -2.30390899   0.34112268
H   -3.25984877  -0.87080836   0.44671320
C   -3.30417513  -1.76124811  -1.50781554
N   -3.28120278  -1.69286870  -2.65214420
C   -0.05957785  -3.21883807  -3.23557445
H    0.51779446  -2.36737823  -3.52978107
H   -1.06335929  -3.10863954  -3.58937974
H    0.37120946  -4.10402637  -3.65481551
C   -0.06587914  -3.32889800  -1.69952527
N   -0.07057075  -3.41084262  -0.55586683
C   -2.75134752   1.81529009  -3.16104102
H   -3.22579332   0.94591250  -3.56599036
H   -1.72148520   1.82734660  -3.45110539
H   -3.23711069   2.69287786  -3.53356344
C   -2.85159646   1.78612116  -1.62458428
N   -2.92623635   1.76440357  -0.48062239
C   -3.08193810   1.41437335   3.09810949
H   -3.31112861   0.99325240   2.14153799
H   -3.74694386   2.22843901   3.29801827
H   -3.19696705   0.66595747   3.85411287
C   -1.62940564   1.92598700   3.09905845
N   -0.54792919   2.30690663   3.09976500
C   -0.00835530  -0.01645611   0.52890176
H   -1.01286672   0.10061059   0.87840479
H    0.59645167   0.78051337   0.90830560
H    0.38099335  -0.95302406   0.86970549
C    0.00654935   0.01597288  -1.01068462
N    0.01764653   0.04011774  -2.15697666
C    0.06368033   3.80662596   0.13898329
H   -0.86529229   3.39074613   0.46906513
H    0.14401740   4.81699883   0.48189975
H    0.87335418   3.23008375   0.53512270
C    0.11975615   3.78079012  -1.39977856
N    0.16150715   3.76155416  -2.54545669
