60
Energy:   -251.63678803
C    3.73734417   1.60979763  -2.00070995
H    4.70053203   1.46472941  -2.44356943
H    3.40384727   2.60845056  -2.19142243
H    3.04215161   0.91479244  -2.42329034
C    3.83161766   1.38156127  -0.48063736
N    3.90180855   1.21162893   0.65112578
C   -1.34623665  -1.32294339   3.15575430
H   -1.66813187  -0.30528741   3.23098703
H   -1.86719242  -1.91613340   3.87799372
H   -1.55580933  -1.69162208   2.17338247
C    0.16846943  -1.40323550   3.42187208
N    1.29623696  -1.46301663   3.62000887
C    2.60273554   1.85516201   3.69373020
H    3.06215528   2.56544938   3.03850082
H    2.91201465   0.86744739   3.42231661
H    2.89822385   2.05697081   4.70212445
C    1.07109883   1.96399627   3.57606927
N   -0.06927432   2.04502832   3.48846535
C    3.40802963  -2.36160844   1.16245911
H    3.50054122  -1.44403966   1.70505410
H    4.28145956  -2.95910954   1.32060989
H    2.54520867  -2.89337630   1.50547810
C    3.25961283  -2.05691788  -0.33978459
N    3.14910977  -1.83006192  -1.45827330
C   -3.46264200  -3.82900773   0.93733520
H   -2.48611430  -4.06856269   1.30326862
H   -4.15571308  -4.58123153   1.25151812
H   -3.76624450  -2.87952577   1.32619072
C   -3.43364691  -3.76813184  -0.60118793
N   -3.41205874  -3.72280698  -1.74668833
C   -0.03683617  -3.04716847  -2.45372157
H    0.14492336  -4.05143793  -2.77513486
H    0.74487899  -2.41079433  -2.81267624
H   -0.97588924  -2.71266922  -2.84255145
C   -0.07198510  -2.99910301  -0.91487321
N   -0.09815508  -2.96331609   0.23086933
C   -3.30229552  -0.29788003  -2.47677847
H   -3.73806402   0.63898852  -2.75477724
H   -3.95133698  -1.09514931  -2.77343645
H   -2.35555339  -0.40908624  -2.96279454
C   -3.10358069  -0.33874486  -0.95019979
N   -2.95562846  -0.36917058   0.18640743
C   -2.04521337   3.13123202   1.00542905
H   -1.00177555   3.36437542   1.04764124
H   -2.21707574   2.18030890   1.46489355
H   -2.60019129   3.88402400   1.52523944
C   -2.50087794   3.08084047  -0.46475138
N   -2.84014093   3.04332167  -1.55936753
C    0.51329948   0.51688211   0.38609508
H   -0.43649371   0.44294730   0.87325698
H    0.97057397   1.45139529   0.63606357
H    1.14299056  -0.28586736   0.70855673
C    0.31587345   0.43365160  -1.13892808
N    0.16888080   0.37168269  -2.27437714
C   -0.11332301   3.72226375  -3.43942234
H    0.55783398   4.13406603  -4.16389964
H   -1.01290129   4.30118789  -3.41695349
H   -0.34606470   2.71161964  -3.70272613
C    0.55040810   3.75093037  -2.05009184
N    1.04458609   3.77227398  -1.01567214
