48
Energy:   -672.19114130
O    3.72357004   1.66113675  -2.34245377
H    4.34097458   2.28906669  -2.71761702
H    3.03126507   1.58378770  -2.99893134
O   -2.00734429   1.31412501   0.22795214
H   -1.26958960   1.47411149   0.81647077
H   -2.78218579   1.42351859   0.77921029
O   -0.16871683   1.30275677  -1.87748351
H   -0.94478369   1.49423120  -1.35090054
H    0.56776579   1.47351698  -1.29040076
O    1.64849032   1.21295449  -4.00285921
H    1.65242415   0.26711069  -4.14981456
H    0.87802671   1.36770824  -3.45635308
O    1.84180335  -1.56555766  -3.94596602
H    2.60406053  -1.48400233  -3.37277795
H    2.12191751  -2.17006603  -4.63323418
O   -3.92852369   1.12953061   2.21946009
H   -3.95264410   0.17549648   2.29341239
H   -4.80552132   1.41255214   2.47831492
O    0.18835435  -1.26108605   2.04297550
H   -0.24402016  -1.37498699   2.88932690
H   -0.50203687  -1.41519581   1.39811738
O   -3.62869836  -1.61488929   2.28700841
H   -4.13107328  -2.42964049   2.29264461
H   -3.06273911  -1.68723009   1.51844561
O   -1.54671473  -1.25849400   4.13409587
H   -2.33473294  -1.47082741   3.63392223
H   -1.59985230  -0.31334107   4.27584981
O    1.97420842   1.46921422  -0.20502905
H    2.66900425   1.71053808  -0.81760835
H    2.08394770   0.52701961  -0.07673855
O   -1.77807351   1.46372116   3.96355761
H   -1.05114577   1.67980330   3.37950589
H   -2.55345584   1.49432688   3.40313154
O   -1.83726376  -1.39625316   0.20900047
H   -1.95277916  -0.44883170   0.13633263
H   -1.35557403  -1.64059978  -0.58125366
O    0.12334716   1.45949182   1.89632244
H    0.23682099   0.52004734   2.04054314
H    0.86298347   1.70825431   1.34198752
O    3.82750766  -1.11737300  -2.18414450
H    3.42612636  -1.28273759  -1.33104459
H    3.97131474  -0.17121241  -2.20235201
O    2.03226108  -1.24500820  -0.04387154
H    1.63216862  -1.42161980   0.80757793
H    1.33458013  -1.41504018  -0.67677142
O    0.01281077  -1.40700850  -1.87515733
H    0.51196381  -1.64132833  -2.65757174
H   -0.12070951  -0.46210418  -1.94972283
