48
Energy:   -664.77654231
O    3.58968915  -0.43513776  -2.40933237
H    4.47058210  -0.67812577  -2.69431709
H    3.29815583  -1.17366333  -1.87471087
O   -0.95000993   1.35242622  -1.02344613
H   -0.18583585   1.35407381  -0.44701998
H   -0.61550507   1.65892658  -1.86629598
O    1.39716434  -0.33635039  -4.11228289
H    2.22471254  -0.33307530  -3.63125784
H    1.00554459   0.51607083  -3.92190464
O   -2.34270656   2.53339750   1.05151643
H   -2.01787789   2.19665936   0.21645619
H   -2.93187929   1.85078708   1.37268671
O   -3.69670555   0.47463177   2.30387217
H   -3.03221275   0.46573188   2.99278577
H   -4.52385067   0.59688820   2.76982943
O   -1.29831200  -1.34928953  -0.78598795
H   -1.29760711  -0.41514606  -0.99481162
H   -0.87183158  -1.76325276  -1.53630838
O    0.83156163  -1.45857477   0.87581811
H    0.07422941  -1.45503284   0.29044028
H    0.47242717  -1.69341074   1.73145025
O   -2.74692665  -1.98311547   1.48010293
H   -2.39495121  -1.85589280   0.59910377
H   -3.20870544  -1.16743270   1.67414886
O    2.63191469   2.02231096  -1.56444805
H    2.25586493   1.83455456  -0.70446784
H    3.07660082   1.21223550  -1.81397530
O   -1.63813831   0.40572036   4.03751469
H   -1.19382616  -0.41672628   3.83160188
H   -1.05809822   1.08467921   3.69284060
O    1.18630102   1.24365247   0.66243702
H    0.81640472   1.65111377   1.44562529
H    1.15623022   0.30424564   0.84366177
O    0.34745757  -2.39786031  -2.66482338
H    1.14055147  -2.57529049  -2.15910364
H    0.61176025  -1.73240850  -3.30007910
O    0.51588648   2.13657309  -3.22514493
H    1.29196188   2.19597690  -2.66800042
H    0.53805382   2.93449453  -3.75340797
O   -0.23937486   2.38168231   2.71183150
H   -0.99464608   2.52371080   2.14119577
H   -0.07215170   3.23771969   3.10612614
O    2.55110949  -2.53284380  -0.95430183
H    2.81636741  -3.40275836  -0.65577422
H    2.02233287  -2.18379348  -0.23681246
O   -0.63728291  -2.00878099   3.13674948
H   -0.69259867  -2.76835920   3.71658821
H   -1.40968804  -2.07839349   2.57570024
