48
Energy:   -672.88189601
O    3.23412940   0.83267223  -3.36396032
H    3.63932827   0.29130450  -2.68648951
H    3.96890347   1.27493620  -3.78909736
O   -2.39190048   0.32477082  -0.28521538
H   -2.04365971  -0.35950316   0.28638704
H   -3.20088707   0.60587427   0.14228129
O   -0.55693273  -0.30443988  -2.30802890
H   -1.35934120  -0.10689592  -1.82496694
H    0.04016073   0.40924253  -2.08359923
O    1.48591424  -1.21964810  -4.01245995
H    0.68298916  -0.89556625  -3.60439854
H    2.08287848  -0.47161322  -3.99487124
O    2.34357827  -3.29531454  -2.53654274
H    2.10717935  -2.57517090  -3.12112851
H    2.57987697  -4.01338001  -3.12371967
O   -4.28158868   1.15898481   1.57365458
H   -5.13926867   1.58394934   1.57834679
H   -3.68171745   1.82541616   1.90870026
O    0.45244067   0.50507222   2.26568625
H    0.02372749   0.67360385   3.10475356
H    0.14721310   1.20984238   1.69440086
O   -3.07521679  -0.69958307   3.26925348
H   -2.52733464  -1.20358044   2.66755285
H   -3.62371726  -0.16012214   2.69972649
O   -1.25520647   1.01098368   4.33859478
H   -1.92384746   0.37111449   4.09422111
H   -1.26754148   1.01734994   5.29569413
O    1.28265067   1.49818068  -1.44435273
H    1.90697851   1.51972439  -2.16959921
H    1.68670040   0.92038857  -0.79694873
O   -2.40310616   2.82208758   2.53881951
H   -1.73981924   2.87324612   1.85058618
H   -1.97572756   2.34313884   3.24888112
O   -1.17568753  -1.47544333   1.34798139
H   -0.55015254  -0.86276503   1.73471530
H   -0.64752434  -2.02286456   0.76694310
O   -0.61356028   2.25754919   0.46477572
H    0.05979681   2.30820371  -0.21364612
H   -1.26018653   1.64411088   0.11577746
O    4.15319417  -0.90298558  -1.47891865
H    3.61718938  -0.68101922  -0.71756351
H    3.88987408  -1.79479212  -1.70602098
O    2.18772422  -0.34441193   0.34426463
H    1.79580921  -0.09690272   1.18174517
H    1.65355006  -1.07660037   0.03638494
O    0.55325662  -2.21866470  -0.70723534
H    1.08277712  -2.79752306  -1.25565387
H    0.06903687  -1.67555033  -1.32915966
