48
Energy:   -666.21080963
O    2.38069411   0.75676966  -1.13915460
H    2.63005925  -0.12092163  -0.84983318
H    1.94187771   1.14357771  -0.38149271
O   -1.34332940   0.89066803  -0.74833645
H   -0.60948451   1.18204479  -0.20722360
H   -0.93776219   0.59344033  -1.56283187
O    0.31617469  -0.10249804  -2.69461473
H    1.04544589   0.21537484  -2.16230636
H    0.49007001   0.24246250  -3.57039694
O   -3.05068585   2.40852998   0.83814154
H   -3.44225198   1.69970077   1.34850314
H   -2.61894894   1.96736771   0.10656042
O   -3.68473102   0.24470358   2.46792409
H   -2.98707691   0.50153646   3.07087306
H   -4.44019259   0.07866273   3.03178585
O    0.11122187  -0.64537801   2.42894237
H   -0.64030129  -0.91556876   1.90126657
H    0.71805066  -1.38389908   2.37817528
O    1.58799187  -2.89150357   1.82469003
H    1.86793005  -3.66146727   2.31968737
H    0.84730780  -3.19855964   1.30187503
O   -2.01062404  -1.22796137   0.82687053
H   -1.84875161  -0.55060832   0.17019556
H   -2.72254484  -0.87779281   1.36239139
O    3.34620360   1.78597386  -3.50270162
H    4.30162613   1.72821428  -3.49473444
H    3.08141291   1.50384082  -2.62719108
O   -1.54754490   1.01690149   3.91244975
H   -0.87226050   0.40531501   3.61887729
H   -1.29503129   1.85611057   3.52748631
O    0.70785237   1.54350585   0.92160552
H    0.29534525   2.25404869   1.41272525
H    0.63506151   0.78109525   1.49576875
O    0.68563481  -2.74119352  -2.16711897
H    0.48126371  -1.84307197  -2.42758391
H    0.75982351  -3.21956591  -2.99288392
O    1.19957381   1.02159269  -5.01072220
H    0.95050043   1.76100120  -5.56522139
H    2.00359662   1.30712965  -4.57684685
O   -0.96915094   3.23350980   2.33363772
H   -1.73914040   3.04479815   1.79722743
H   -1.03008842   4.17046645   2.51973098
O    2.71085470  -1.85395479  -0.48626922
H    2.46250445  -2.20245948   0.36994248
H    2.10889205  -2.27444824  -1.10031978
O   -0.49534034  -3.48271060   0.22980193
H   -0.18480294  -3.30196607  -0.65740142
H   -1.16677974  -2.81930862   0.38885790
