48
Energy:   -672.19262495
O    3.17710949   0.86121950  -3.35763316
H    3.60143956   0.30051177  -2.70818517
H    3.90080157   1.29496116  -3.80970594
O   -2.37899652   0.35242372  -0.27341991
H   -2.03528362  -0.35012691   0.27840969
H   -3.17261939   0.64374037   0.17550013
O   -0.55910151  -0.24387529  -2.30773718
H   -1.36020987  -0.04084032  -1.82479408
H    0.05499476   0.44530784  -2.05447003
O    1.41979489  -1.17833721  -4.06769392
H    0.63093365  -0.84598157  -3.63936051
H    2.03402490  -0.44465060  -4.04205594
O    2.21332465  -3.32177183  -2.61660115
H    1.99779515  -2.59763867  -3.20431711
H    2.42900727  -4.04882365  -3.20064610
O   -4.24920317   1.18785913   1.59653972
H   -5.10391943   1.61849241   1.61225412
H   -3.64463849   1.84153448   1.94788277
O    0.47581739   0.45966127   2.27142083
H    0.05783732   0.61939646   3.11759409
H    0.17446921   1.17821068   1.71544614
O   -3.07113575  -0.71240315   3.26560318
H   -2.53989842  -1.21707180   2.64970684
H   -3.61420805  -0.15218523   2.71111223
O   -1.23076962   0.95160757   4.35224976
H   -1.90815214   0.32475059   4.09840907
H   -1.24067462   0.94120056   5.30934193
O    1.31531200   1.50389361  -1.38860183
H    1.93942928   1.52694553  -2.11398316
H    1.69975549   0.89231935  -0.76057957
O   -2.34024100   2.81322911   2.58757427
H   -1.67854718   2.86051215   1.89753264
H   -1.92004760   2.31604074   3.28933853
O   -1.18563186  -1.47628731   1.33200328
H   -0.55102359  -0.87758874   1.72578523
H   -0.67015669  -2.00678139   0.72447286
O   -0.58599281   2.24657189   0.51690935
H    0.08879422   2.28599064  -0.16083727
H   -1.25244051   1.66054533   0.15822820
O    4.18427902  -0.85865015  -1.50040552
H    3.66448401  -0.66641182  -0.71996370
H    3.97433626  -1.76862028  -1.71042992
O    2.21608847  -0.39773242   0.34166923
H    1.81132494  -0.15671470   1.17492117
H    1.67634842  -1.11602357   0.01156264
O    0.52302051  -2.20631564  -0.74430303
H    1.02655068  -2.79285151  -1.30880714
H    0.04749732  -1.63891764  -1.35107238
