48
Energy:   -681.27944851
O    3.15463791   0.59793845  -3.39891905
H    3.60724615   0.05700830  -2.75179294
H    3.85764545   1.01132843  -3.90003877
O   -2.37871365   0.18351347  -0.34492327
H   -2.01736819  -0.44906986   0.27596291
H   -3.18616006   0.49028819   0.06757088
O   -0.45992731  -0.53996764  -2.23615654
H   -1.29525274  -0.31650353  -1.82563604
H    0.11142490   0.20170045  -2.03686544
O    1.48212186  -1.54822893  -3.97730513
H    0.65813416  -1.25085998  -3.59149711
H    2.04669968  -0.77539811  -3.96259954
O    2.58728771  -3.22545595  -2.18272544
H    2.20066090  -2.71471709  -2.89399008
H    2.81351629  -4.06408006  -2.58492201
O   -4.31124643   1.17272419   1.36986588
H   -5.19817631   1.53095552   1.33440402
H   -3.76818398   1.90491621   1.66177317
O    0.40374088   0.72023890   2.26476654
H   -0.04098355   0.98646023   3.06948900
H    0.08627244   1.33274454   1.60122870
O   -3.08935115  -0.45007597   3.27544894
H   -2.53096326  -1.00726148   2.73325053
H   -3.65446983   0.00405992   2.65044229
O   -1.42552783   1.45243494   4.20677119
H   -2.03891301   0.75242253   3.98322455
H   -1.48216331   1.52598343   5.15945944
O    1.32520829   1.36946595  -1.47026663
H    1.94560311   1.32236042  -2.19767518
H    1.73824522   0.86490110  -0.76951941
O   -2.54335434   3.02761320   2.20002596
H   -1.85736019   3.01536448   1.53257272
H   -2.13175815   2.64372592   2.97426816
O   -1.14384807  -1.39057354   1.49721207
H   -0.54810070  -0.72342630   1.83813944
H   -0.58904848  -1.95542797   0.95928202
O   -0.67845193   2.22446219   0.27421931
H    0.00720728   2.22167979  -0.39368453
H   -1.31221692   1.57471176  -0.02975136
O    4.14080986  -1.02483562  -1.48866489
H    3.72534940  -0.75502908  -0.66962344
H    3.75877781  -1.88120011  -1.68081906
O    2.28033998  -0.29305493   0.46656043
H    1.87478785   0.05131003   1.26228154
H    1.74448264  -1.05096549   0.23276494
O    0.65010945  -2.27337344  -0.44991018
H    1.28211425  -2.79936921  -0.93994102
H    0.20248228  -1.75298100  -1.11703347
