48
Energy:   -664.29066308
O   -3.77117169   0.77505344   1.84727871
H   -3.16649483   0.46377329   2.52085306
H   -3.66152187   0.15886229   1.12304309
O   -0.46855297   2.26211846   2.52727126
H   -1.18091404   2.71581556   2.07679096
H    0.22716120   2.19845634   1.87293130
O   -2.66810806   3.09674952   1.04359008
H   -3.15880488   2.33255755   1.34601216
H   -3.28085139   3.82655390   1.13393957
O    1.77190345  -0.78710392   0.96947082
H    1.54643695   0.12511696   0.78712560
H    1.81671552  -1.20021505   0.10716987
O    1.04340463   1.71822177   0.22865018
H    0.16746849   1.65038297  -0.15130459
H    1.62224235   1.84283655  -0.52344682
O    1.72738406  -1.83244284  -1.52555860
H    1.15044376  -2.56337479  -1.30395033
H    1.15773672  -1.20229015  -1.96674036
O   -1.63348970  -0.00390056   3.43568035
H   -1.15712015   0.78532095   3.17793374
H   -1.54637657  -0.03642070   4.38835322
O    4.11862888  -0.41108563  -1.75870613
H    4.42454301  -0.41512107  -0.85171545
H    3.46854844  -1.11268986  -1.79583798
O   -1.73679895  -1.93836013  -2.52500926
H   -2.06930812  -2.25750005  -3.36394860
H   -1.09995997  -1.26359206  -2.76028785
O    2.44091428   1.63813784  -2.19074715
H    3.09846119   0.95604475  -2.05431799
H    2.90916978   2.33409667  -2.65184361
O   -2.68325737  -0.81711386  -0.17534302
H   -2.56626802  -1.27904962  -1.00550005
H   -2.02489028  -1.19774678   0.40595140
O   -0.26641138  -3.47977608  -0.71841476
H   -0.50959012  -3.10995997   0.13030898
H   -0.88912549  -3.09497206  -1.33516823
O   -1.45100692   1.48689106  -0.84924348
H   -1.93051189   0.69699127  -0.59951330
H   -1.88571932   2.19284987  -0.37083033
O    4.48701954  -0.49022823   0.96072200
H    4.90402086  -1.00307803   1.65305633
H    3.54840903  -0.59782827   1.11455434
O   -0.72574918  -1.73251718   1.47676114
H    0.17951039  -1.43681007   1.38035445
H   -1.04333887  -1.28197608   2.25930913
O    0.13432495   0.13960190  -2.65556992
H    0.92538768   0.67235806  -2.73694856
H   -0.46870504   0.68154705  -2.14676530
