48
Energy:   -666.84572025
O    3.10939782  -0.65708084  -3.07107384
H    4.00215204  -0.78262528  -3.39272637
H    2.97751537  -1.36906976  -2.44504616
O   -1.39726187   1.73502433  -0.15274016
H   -1.74077012   0.96404558   0.29873043
H   -0.45120078   1.69311629  -0.01329849
O    0.64497739  -1.13895881  -4.27088335
H    1.53757050  -0.90447004  -4.01686684
H    0.10815326  -0.40873371  -3.96294989
O   -1.74889173   3.30043848   2.06916277
H   -1.71422071   2.95838885   1.17583651
H   -2.34581395   2.71022988   2.52912964
O   -3.11636532   1.14117488   3.16026426
H   -4.03808436   1.04493027   3.39985314
H   -2.99215375   0.53025712   2.43391530
O   -1.05399914  -1.45413922  -1.18675492
H   -0.92923639  -0.69598941  -1.75760951
H   -0.77954734  -2.20193787  -1.71751404
O    1.05415542  -1.26642091   0.52444196
H    0.31022207  -1.33780195  -0.07363812
H    0.69563474  -1.49567117   1.38184448
O   -2.25331856  -0.56827656   1.15373982
H   -2.11203606  -1.00104597   0.31172929
H   -1.65616136  -1.01296283   1.75531214
O    1.90774145   1.70559596  -2.29132205
H    1.87203150   1.70806372  -1.33479157
H    2.44813389   0.94620515  -2.50934372
O   -0.61462273   0.57885953   4.26642801
H   -1.51365310   0.83943524   4.06623676
H   -0.07392816   1.27246288   3.88854491
O    1.25730465   1.44882742   0.40013139
H    1.23258600   1.81421829   1.28450142
H    1.30074055   0.50186798   0.53284536
O    0.17641474  -3.32366320  -2.78635882
H    0.32827802  -2.61256536  -3.40886124
H   -0.07301746  -4.07023363  -3.33101285
O   -0.60905080   0.81501653  -2.65467696
H   -1.11096355   1.29698940  -1.99739651
H    0.26557738   1.20241799  -2.62036241
O    0.70709164   2.56162411   2.87241054
H   -0.13616344   2.92715297   2.60493835
H    1.17792357   3.30089392   3.25715629
O    2.49181523  -2.66191246  -1.38103874
H    1.74036805  -3.06120556  -1.81935827
H    2.12273636  -2.24909972  -0.60027099
O   -0.37309268  -1.67741706   2.84413860
H   -0.37261097  -0.91318489   3.42048990
H   -0.36190184  -2.42692955   3.43940126
