48
Energy:   -673.39227564
O    3.19847094   0.76043550  -3.38088419
H    3.60067908   0.20390408  -2.71400095
H    3.93670045   1.19522743  -3.80773898
O   -2.40069311   0.27110420  -0.30121405
H   -2.04144912  -0.38234858   0.29893182
H   -3.20961534   0.56358999   0.11870109
O   -0.54173801  -0.41456716  -2.27806456
H   -1.35246248  -0.20584597  -1.81395990
H    0.04522078   0.31385074  -2.07528735
O    1.49349975  -1.37455379  -3.95849076
H    0.68743457  -1.05355316  -3.55420205
H    2.06056705  -0.60494358  -4.00713895
O    2.40661042  -3.35471873  -2.36782163
H    2.16922046  -2.68222508  -3.00628083
H    2.65379591  -4.11238387  -2.89798644
O   -4.30782410   1.16260569   1.50813273
H   -5.17314182   1.57134159   1.48833219
H   -3.72126484   1.85691319   1.80832794
O    0.45252980   0.59937941   2.23254633
H    0.03240356   0.79834939   3.06928807
H    0.12744506   1.27254200   1.63471367
O   -3.07372638  -0.60341597   3.27867719
H   -2.52074575  -1.12888468   2.70046711
H   -3.62673872  -0.09522942   2.68525016
O   -1.29217095   1.18457446   4.26395189
H   -1.94719781   0.52201398   4.04444044
H   -1.31031747   1.23255159   5.21977654
O    1.26901406   1.44867907  -1.47252946
H    1.91196762   1.46905155  -2.18135069
H    1.66938159   0.89622538  -0.80116324
O   -2.45142436   2.90384571   2.38394714
H   -1.78558136   2.92627447   1.69664670
H   -2.02266094   2.46600963   3.11926567
O   -1.15520638  -1.43751901   1.40031376
H   -0.53567672  -0.80522883   1.76448950
H   -0.62087503  -2.00347918   0.84316842
O   -0.65668525   2.25653080   0.37324987
H    0.02424461   2.26904592  -0.29936424
H   -1.29969184   1.62438343   0.05205822
O    4.16702233  -0.90101850  -1.45054818
H    3.64093358  -0.62147695  -0.70133593
H    3.91041807  -1.81136949  -1.59767799
O    2.22595937  -0.30348022   0.37106226
H    1.81745981  -0.01998145   1.18897937
H    1.71009334  -1.06110461   0.09516485
O    0.60650152  -2.23700746  -0.60136702
H    1.15036822  -2.81481683  -1.13669608
H    0.11163325  -1.71791152  -1.23530443
