48
Energy:   -665.47590187
O    4.00300709   1.57092001  -1.88831837
H    3.97140002   0.64037437  -2.11039414
H    4.93124586   1.79870061  -1.94047805
O   -1.76934480   1.54783535   0.51466999
H   -2.54445078   1.63335391   1.06976380
H   -1.04361530   1.44430308   1.13016134
O    0.11482198   2.12140227  -1.45663809
H   -0.67492806   2.09943477  -0.91622699
H    0.81554235   1.83831913  -0.86919724
O    1.82576815   2.00799529  -3.58149583
H    2.63321403   2.03955040  -3.06840005
H    1.13159479   2.18965535  -2.94797014
O    1.43653860  -0.56731808  -4.18952742
H    1.48797470  -0.63686822  -5.14281067
H    1.51984122   0.36965868  -4.01241987
O   -3.74873196   1.33959004   2.43549197
H   -4.37177201   1.94990223   2.82991810
H   -3.07877429   1.21294814   3.10731814
O   -0.06597370  -1.71910676   1.69617382
H   -0.55895426  -1.97204274   2.47670275
H   -0.73428515  -1.57708662   1.02578443
O   -3.72206611  -1.38373657   1.87837681
H   -3.26120397  -1.39820446   1.03955108
H   -3.91453824  -0.45851391   2.03052596
O   -1.88906804  -1.97539549   3.76001087
H   -2.60189119  -1.84737264   3.13413137
H   -2.20529868  -2.66247231   4.34665852
O    2.12964745   1.13805866   0.10610145
H    2.86285838   1.41670598  -0.44252343
H    2.03804730   0.20222062  -0.07291929
O   -1.72455791   0.77853537   4.12154794
H   -0.91886718   0.98422395   3.64743138
H   -1.73332515  -0.17703998   4.17660009
O   -1.89347252  -1.06877667  -0.21135387
H   -1.88150781  -0.11782330  -0.10283483
H   -1.44677722  -1.22092538  -1.04414792
O    0.29572591   0.93287919   2.19277959
H    0.25121279  -0.01791733   2.09160444
H    1.05391450   1.19457542   1.67038416
O    3.57432574  -1.02596535  -2.46998673
H    2.90679206  -0.97067974  -3.15378066
H    3.10918502  -1.37098314  -1.70785899
O    1.72577482  -1.52182466  -0.43071263
H    1.31790069  -1.78503096   0.39426797
H    1.03486438  -1.62799690  -1.08462553
O   -0.23106024  -1.74065522  -2.34166012
H   -0.42290420  -2.58968459  -2.73987723
H    0.23267856  -1.25495128  -3.02376704
