49
Energy:   -887.36791655
O   -2.61004521  -2.12709059  -1.52402848
H   -3.29405552  -2.78724094  -1.63611440
H   -2.34861662  -2.20576400  -0.60658778
O   -2.07395063  -0.47605248   3.21167757
H   -1.20282465  -0.60385172   3.58722880
H   -2.67259807  -0.59007319   3.94981873
O   -1.37370493   2.13091047  -3.18793264
H   -1.78839356   2.63660730  -3.88688607
H   -0.71047351   1.60414652  -3.63388744
O    3.59625860  -0.08609987   0.15857871
H    4.55259566  -0.08208627   0.11814151
H    3.31909590   0.28625094  -0.67853990
O    0.59702845  -0.89667045   3.82546935
H    0.99151555  -0.27393555   3.21488519
H    1.05775125  -0.74780515   4.65118448
O   -2.51416324   0.66064965  -1.14405780
H   -2.79291494  -0.19946299  -1.45827998
H   -2.32554388   1.15744941  -1.94020136
O    0.36297570   3.30775253   1.68202477
H    0.21069988   4.07525365   2.23337398
H   -0.46438313   2.82699372   1.70611190
O   -1.70974277   1.55546548   1.37625836
H   -2.31362043   1.39565792   0.65098244
H   -1.98854712   0.94577006   2.05946512
O    0.56691905   0.40530088  -4.17315281
H    0.80030423   0.13423879  -5.06100897
H    0.32320480  -0.40755531  -3.73032099
O    1.66050573  -2.07663783  -0.24669668
H    1.50518080  -2.56011219   0.56469629
H    2.49035957  -1.62257784  -0.10039569
O    0.74756145  -3.10265313   2.15834184
H    0.77565559  -2.43912374   2.84766856
H    0.91715859  -3.92795338   2.61259745
O    0.50919124   2.74736239  -1.03996930
H   -0.20924361   3.04269198  -1.59931146
H    0.40978285   3.25412621  -0.23402870
O   -1.42880938  -1.90018656   0.94511888
H   -1.82944878  -1.49135397   1.71230583
H   -0.76374732  -2.48670884   1.30555740
O   -0.06211210  -1.61615313  -2.46342410
H   -0.92330626  -1.99315878  -2.28330411
H    0.54375011  -2.14073044  -1.93999169
O    1.55333835   0.75900189   1.87091431
H    1.42201448   1.70699213   1.88824672
H    2.40475504   0.64233633   1.44935696
O    2.24363521   0.89794703  -1.99146093
H    1.86545526   1.74946605  -1.77208200
H    1.90808189   0.70467300  -2.86683569
K    0.03388425   0.12876114  -0.32188476
