49
Energy:   -883.48287605
O   -0.66756645  -3.63545407  -0.85770703
H   -1.06885563  -4.49034835  -1.01376668
H   -1.30357576  -3.16687349  -0.31719223
O   -1.52409885   1.27644302   2.04080556
H   -1.00777906   0.97119669   2.78677499
H   -1.26110103   2.18941437   1.92441262
O    0.31999197   0.39871609  -4.13238084
H    0.37381511  -0.37299061  -3.56864004
H    0.23196329   0.04398413  -5.01705481
O    2.53665634   0.78181269  -0.84926946
H    2.38543584   1.44980501  -1.51796256
H    2.53324044   1.26456053  -0.02272563
O    0.35370308   0.29191735   3.80775929
H    0.50225895   0.40223358   4.74690429
H    0.21459998  -0.64845895   3.69562283
O   -3.74847411   0.15643021   0.92676811
H   -4.59664591   0.36685096   1.31735684
H   -3.11655129   0.66074243   1.43918842
O    1.56545967   1.59671228   1.63197826
H    1.39705821   1.19324158   2.48349701
H    1.10508632   2.43513919   1.66842771
O   -2.37265101   0.63890984  -1.43590006
H   -3.02186359   0.50912154  -0.74458981
H   -2.82388128   0.38229299  -2.24012073
O    0.56623973  -1.58253533  -2.25169579
H    0.10407453  -2.38400086  -2.00615930
H    1.48779091  -1.77397901  -2.07755624
O    3.13424946  -1.84563639  -1.21750247
H    4.02710338  -2.07130825  -1.47849278
H    3.14791733  -0.89423080  -1.11323155
O   -0.16646046  -2.29648068   3.08323337
H    0.46484551  -2.43204970   2.37661773
H   -0.08874054  -3.07967564   3.62802427
O   -0.43826559   2.60601632  -1.02934501
H    0.18660337   2.68480863  -1.75015179
H   -1.20924287   2.19811123  -1.42360294
O   -1.87212871  -1.88098142   0.87486779
H   -2.66216805  -1.35096628   0.98047864
H   -1.57278601  -2.04633915   1.76889386
O    1.24416484  -2.40160761   0.73795654
H    2.06159241  -2.32929401   0.24519417
H    0.70515510  -3.00118325   0.22200169
O   -0.27895301   3.67314951   1.46287010
H   -0.34594378   4.62372286   1.55317179
H   -0.36078128   3.51506758   0.52236700
O    1.58423416   2.43386327  -2.86832790
H    1.18777484   1.76237369  -3.42344374
H    1.98110098   3.05035653  -3.48368521
K   -0.02541088   0.01357066  -0.04876165
