49
Energy:   -883.99244014
O   -2.65793911  -2.26715690  -1.49938419
H   -3.30896822  -2.95133325  -1.65525488
H   -2.44347569  -2.34721814  -0.56996099
O   -1.87822972  -0.13655333   3.18795176
H   -1.00223452  -0.34666081   3.51155505
H   -2.42847525  -0.13105399   3.97117042
O   -1.13167177   1.81362978  -2.21585912
H   -0.94684839   2.70106178  -1.90839104
H   -0.57424880   1.70567907  -2.98648103
O    3.57438835  -0.80440791  -0.01817374
H    4.50753307  -0.92875243  -0.19141117
H    3.27216054  -0.23701446  -0.72736685
O    0.75393289  -0.83078480   3.67332592
H    1.15562084  -0.27572506   3.00490441
H    1.26959685  -0.66694845   4.46293353
O   -3.08261609   0.40491826  -0.86035335
H   -3.19495590  -0.47812119  -1.21228083
H   -2.73451261   0.91284490  -1.59320145
O   -0.67846070   3.83654686  -0.26740469
H   -1.13106566   4.67293992  -0.15865151
H   -1.14146018   3.23546822   0.31617718
O   -1.76412530   1.72334568   1.13144953
H   -2.46745827   1.38445933   0.57763493
H   -1.86587338   1.25671883   1.96099070
O    0.69745602   0.71034412  -3.99081890
H    0.84402669   0.64116326  -4.93419734
H    0.37736259  -0.15431246  -3.73363989
O    1.30058292  -2.32243412  -0.36913872
H    1.12893446  -2.78736339   0.44976874
H    2.19702172  -1.99935148  -0.27832608
O    0.53102426  -3.15968302   2.17194879
H    0.69317059  -2.45909631   2.80370719
H    0.68123091  -3.96654007   2.66454550
O    1.88796479   3.00234635   0.13166070
H    2.48170745   3.73512355   0.29518159
H    1.02910348   3.40979084   0.01950865
O   -1.66199457  -1.92313306   1.06045668
H   -1.97588793  -1.39757501   1.79631776
H   -1.01179207  -2.51078234   1.44534223
O   -0.20610295  -1.56092837  -2.64631969
H   -1.07165737  -1.94079953  -2.49550425
H    0.39146866  -2.12119152  -2.15109729
O    1.71405282   0.56123018   1.52146626
H    1.83834821   1.47125633   1.25195760
H    2.46111575   0.09547874   1.14569450
O    2.11208492   0.84200517  -1.62349089
H    2.13510847   1.73598013  -1.28215450
H    1.80771127   0.93746895  -2.52597369
K   -0.24283094  -0.02754787  -0.36801469
