49
Energy:   -885.81161900
O   -1.52048416  -3.35012894   0.75689974
H   -1.97775873  -4.18792023   0.82927084
H   -2.19343596  -2.73354963   0.46845967
O   -3.37530462   0.04320291   2.71311746
H   -3.93422355  -0.00713987   3.48855739
H   -2.58949696  -0.44872328   2.95133332
O   -1.20842450   0.82975727  -2.44637379
H   -0.67074396   1.60780358  -2.59393885
H   -0.78086441   0.14220157  -2.95695324
O    4.06048564   0.30634156  -0.12055344
H    4.85684032   0.50388245  -0.61353282
H    3.35213519   0.41582956  -0.75496959
O    1.45474400  -0.52714741   2.03339006
H    1.96352419   0.27515296   2.15038870
H    2.07677672  -1.15410785   1.66429961
O   -3.64612438   1.20915165  -1.26923195
H   -2.90635547   1.14452936  -1.87321686
H   -4.36812330   1.53293356  -1.80785489
O    0.50695222   2.65404981   0.39334945
H    1.23406672   2.59459375   1.01302785
H   -0.25613417   2.85031968   0.93686501
O   -2.19677701   1.92122295   1.04746629
H   -2.81313365   1.92743186   0.31514273
H   -2.66735405   1.47807755   1.75344875
O    0.45866925  -1.24880907  -3.28446736
H    0.56971756  -1.81505485  -4.04818579
H    0.46417900  -1.84838365  -2.53833613
O    3.03892649  -2.18577801   0.53148761
H    3.69572314  -2.83453710   0.78439402
H    3.54816799  -1.42354521   0.25597697
O   -1.06154412  -1.37213476   2.67346619
H   -0.12233408  -1.20028912   2.74118195
H   -1.11912234  -2.22263689   2.23807816
O    0.63430467   2.89317328  -2.32600875
H    0.78742849   3.75950367  -2.70317795
H    0.58493999   3.04745861  -1.38261540
O   -2.99685341  -1.06951389   0.18705312
H   -3.41051577  -0.45805471  -0.42223578
H   -3.29345484  -0.78458657   1.05138863
O    0.55469148  -2.35995257  -0.77309025
H   -0.03840352  -2.92915911  -0.28270867
H    1.40802694  -2.48880771  -0.35902890
O    2.80214975   1.85790000   1.81668570
H    3.40008603   2.29436064   2.42348564
H    3.37506995   1.44524439   1.17038110
O    1.86897637   0.51579966  -1.68887025
H    1.60172845   1.37860664  -2.00568960
H    1.56349095  -0.09225569  -2.36205610
K   -0.42098743   0.05608997   0.10274695
