49
Energy:   -884.43443052
O   -0.76584069  -3.75511339   0.04365384
H   -1.29814863  -4.54478270  -0.05279559
H   -1.35860768  -3.11217196   0.43286517
O   -1.91656159  -0.04497587   3.18856392
H   -0.99096223  -0.28684085   3.15695698
H   -2.16543802  -0.16736038   4.10470496
O   -2.86321529   0.11245055  -1.06150304
H   -3.14479399   1.02486598  -0.99484440
H   -2.61986800   0.00294084  -1.98075359
O    2.52977580   0.26694367  -0.36377031
H    2.80222921  -0.54625542  -0.78886822
H    2.63213413   0.93701515  -1.03960967
O    0.67118740  -0.69645237   2.38633758
H    1.43101268  -0.13693435   2.54707640
H    1.04414245  -1.53879279   2.12633949
O   -2.96555061   2.84858677  -0.71436736
H   -2.17943137   2.85828706  -1.26040244
H   -3.48143115   3.59340627  -1.02314403
O    1.11898409   2.80743210   0.80755949
H    1.68251706   2.44256138   1.48985840
H    0.26700903   2.91287432   1.23094146
O   -1.46849843   2.20727284   1.56494545
H   -1.88661473   1.66188923   2.23125418
H   -2.19292592   2.52637785   1.02679244
O   -1.36839324  -0.18515315  -3.42093491
H   -1.54418683  -0.50297904  -4.30655061
H   -0.83555542  -0.87228222  -3.02072329
O    2.75605058  -2.34924011  -1.18100840
H    2.51070028  -2.68852154  -0.32023945
H    3.42308678  -2.95828058  -1.49781159
O    1.60683269  -3.07947920   1.24685425
H    1.91584212  -3.76450884   1.83971125
H    0.79022187  -3.42474887   0.88606696
O    2.05720257   2.65062964  -1.76057550
H    2.56938454   3.39050983  -2.08688637
H    1.80556062   2.90580222  -0.87299726
O   -2.13077565  -1.59942649   0.92269785
H   -2.28081381  -1.16252951   1.76105423
H   -2.67464993  -1.11707626   0.29998534
O    0.10424654  -1.80397441  -1.73164132
H   -0.29184019  -2.55404123  -1.28807970
H    1.03930724  -2.00697184  -1.75782090
O    2.76675449   1.07929605   2.24602639
H    3.64203621   1.22079614   2.60670836
H    2.92189043   0.77864074   1.35060969
O   -0.63964062   2.13293639  -2.06535111
H    0.26639965   2.40902071  -2.20355502
H   -0.80683291   1.49999638  -2.76368163
K   -0.23331472   0.34431295   0.00186934
