49
Energy:   -883.95795984
O   -1.13376830  -3.60180321   0.19598844
H   -1.66259255  -4.39154594   0.08248437
H   -1.77131044  -2.90859379   0.36696379
O   -2.56737445  -0.08645398   3.07186728
H   -1.66106342  -0.37745077   3.17262954
H   -2.94371874  -0.16565406   3.94840831
O   -1.40568952   0.91103645  -2.41512641
H   -0.89796431   1.68354349  -2.16677217
H   -0.87194178   0.47679621  -3.08054405
O    3.75745148   0.77557099  -0.02261534
H    4.69903650   0.94277342   0.01852884
H    3.51202440   1.00438829  -0.91907507
O    0.02046376  -0.82432515   2.68254014
H    0.73352620  -0.18615771   2.65982184
H    0.45448524  -1.67251388   2.59070827
O   -3.63181156   0.86501233  -0.82967549
H   -3.01154771   0.90658993  -1.55753256
H   -4.47272459   1.10843155  -1.21677266
O    0.25233645   3.57108936   1.34257046
H    0.12296175   4.41954929   1.76637440
H   -0.60685286   3.15079434   1.37968754
O   -1.94607336   1.85691508   1.19281364
H   -2.65516547   1.76491159   0.55645243
H   -2.24468371   1.36491728   1.95766779
O    0.80844399  -0.27087605  -3.70521384
H    0.83973042  -0.59727903  -4.60449917
H    0.60397862  -1.04240631  -3.17685145
O    2.12469540  -1.47976978  -0.07332426
H    2.13892414  -2.08068218   0.67161445
H    2.86743111  -0.89473590   0.07604395
O    1.08471799  -3.22729113   1.86324872
H    1.34627184  -4.01566543   2.33894548
H    0.33840371  -3.50424309   1.33169961
O    0.46692629   2.43494216  -1.17973741
H    1.33702513   2.38810443  -1.57592686
H    0.56602336   3.05270904  -0.45532337
O   -2.59574446  -1.30239871   0.58022211
H   -3.15532284  -0.73275637   0.05238549
H   -2.75178153  -1.02302190   1.48234897
O    0.15953986  -2.11373258  -1.79675239
H   -0.35169514  -2.79084915  -1.35360031
H    0.99828309  -2.10591905  -1.33557932
O    1.63064491   1.19390532   1.72154060
H    1.34778975   2.10826942   1.73431115
H    2.46177241   1.20641087   1.24688015
O    2.70614891   1.42951288  -2.51220653
H    3.19246629   1.86557675  -3.21190329
H    2.12373627   0.82153213  -2.96760391
K   -0.23628634   0.02383051   0.00955282
