49
Energy:   -888.97926758
O   -0.75456851  -2.90900476   0.13810014
H   -1.64953930  -2.59976081   0.27819769
H   -0.44284390  -3.14544825   1.01168705
O   -2.83196874   0.43421871   2.90012230
H   -1.96252945   0.11514720   3.14199117
H   -3.31116869   0.47572825   3.72769478
O   -1.11065062   0.65900857  -2.30903460
H   -0.68420982   1.51155823  -2.39586303
H   -0.61497165   0.08241022  -2.89047122
O    3.79053967   0.45353840   0.31589060
H    4.69578859   0.69600140   0.12103698
H    3.31492008   0.62943849  -0.49594499
O   -0.25536074  -0.42854619   2.94421575
H    0.51038620   0.14499306   2.91394688
H    0.10817157  -1.30995317   3.02905579
O   -3.59016077   0.94736200  -1.18059425
H   -2.86016903   0.83817277  -1.79003795
H   -4.34277215   1.14024827  -1.73970321
O    0.29018717   3.58140863   0.56032394
H    0.21158273   4.42733708   1.00129815
H   -0.54953613   3.14976532   0.71774271
O   -1.88673053   1.95026622   0.78386049
H   -2.56840006   1.81053555   0.12656768
H   -2.26536312   1.61619283   1.59704200
O    0.78873859  -1.02390575  -3.47181684
H    0.93069421  -1.83627224  -2.98587329
H    0.94312381  -1.26113069  -4.38621357
O    2.15811415  -1.76894023   0.55383798
H    2.18157121  -2.24086029  -0.27861207
H    2.88490788  -1.14850106   0.49853918
O    0.71286766  -2.97614394   2.53026787
H    1.40733354  -2.66930706   1.94734411
H    1.13545314  -3.63537053   3.08078913
O    0.43416258   2.97131128  -2.11516244
H    0.53776157   3.74145177  -2.67407453
H    0.39720733   3.32340981  -1.22584091
O   -2.78860488  -1.07234945   0.55453271
H   -3.27719701  -0.52811434  -0.06297659
H   -2.99839758  -0.70737958   1.41419303
O    1.22098158  -3.11770505  -1.74879447
H    0.46266101  -3.20171818  -1.17076025
H    1.43554075  -4.01733988  -1.99547928
O    1.54032303   1.34132481   1.70945444
H    1.33679549   2.23440088   1.43156324
H    2.43220545   1.19001141   1.39659366
O    1.92680215   0.71341832  -1.65195424
H    1.57032317   1.56803951  -1.89439435
H    1.71295927   0.14544446  -2.39216283
K   -0.14994651  -0.18132773   0.16876168
