49
Energy:   -882.18269190
O   -2.94543314  -2.06307392  -1.45074405
H   -3.63043497  -2.73164919  -1.45412877
H   -2.50411085  -2.17591131  -0.60888052
O   -1.71667317  -0.89826456   3.21921577
H   -0.79114335  -0.98810900   3.44627165
H   -2.18467820  -1.15298495   4.01440170
O   -1.10211851   2.05442652  -2.48795256
H   -0.53521118   1.73865241  -3.19161060
H   -0.60552104   2.76358940  -2.07965021
O    3.19800497   2.04737731  -0.07604045
H    4.09543372   2.34042145  -0.23408673
H    3.05198903   1.36007440  -0.72606038
O    1.05603750  -1.18141141   3.32391912
H    1.26402135  -0.38259079   2.83929537
H    1.61429048  -1.14317942   4.10052956
O   -2.98897173   0.67456884  -0.84558471
H   -3.21927712  -0.17896688  -1.21255616
H   -2.77267609   1.21272842  -1.60705192
O   -0.11177005   3.31625070   2.14849132
H   -0.35328141   4.04744745   2.71704688
H   -0.91188548   2.79625221   2.07333329
O   -1.95494599   1.37669779   1.63650309
H   -2.62783405   1.22677107   0.97244324
H   -2.06430021   0.65533095   2.25610246
O    0.70447344   0.55768256  -3.99270262
H    0.75816840   0.47151651  -4.94450308
H    0.19669820  -0.20330401  -3.71110789
O    1.71657574  -2.64452944  -1.31097813
H    1.62060405  -2.86827246  -0.38525661
H    2.26283656  -3.34308268  -1.67133120
O    1.13544853  -3.13702228   1.36027531
H    1.23519256  -2.51225104   2.07856765
H    1.26512270  -3.99353771   1.76745804
O    0.63849079   3.09972934  -0.52262158
H    1.58775646   2.99356264  -0.46053172
H    0.37842023   3.43897505   0.33382895
O   -1.24003814  -1.90419446   0.71572828
H   -1.55938447  -1.64381963   1.57970439
H   -0.49981715  -2.48308557   0.89790898
O   -0.49411274  -1.39458638  -2.50388442
H    0.11716700  -2.05934280  -2.18660248
H   -1.36042942  -1.76003726  -2.32451630
O    1.40928262   1.02574777   1.77200657
H    0.97036836   1.82258534   2.06972458
H    2.17393810   1.33912669   1.28896672
O    2.17047340   0.08844970  -1.67792216
H    1.87305844   0.28441899  -2.56638839
H    2.20343886  -0.86747946  -1.64125384
K   -0.26667314   0.47658012  -0.40579327
