49
Energy:   -892.15126223
O   -1.52684949  -3.78910536   0.57112553
H   -2.10540683  -4.53561431   0.72677782
H   -2.08881022  -3.02242309   0.68351007
O   -2.50726131   0.15301486   3.14609318
H   -1.58575496  -0.01666939   3.34170801
H   -2.93396182   0.17689551   4.00259084
O   -0.68262128   1.05523787  -2.00515680
H   -0.17402475   1.86609653  -2.01350272
H   -0.27435028   0.50894478  -2.67680440
O    3.21881906   2.06304377  -0.87263382
H    4.01416652   2.56494427  -1.05081956
H    2.51261938   2.59341476  -1.24171440
O    0.18844398  -0.26795468   3.07838560
H    0.92072346   0.32764669   2.91945914
H    0.55717007  -1.14166839   2.94839605
O   -3.24734226   0.79021088  -1.01370854
H   -2.47742901   0.91424790  -1.56875831
H   -3.98642735   1.03597462  -1.57011240
O    0.09644656   3.78034278   0.92461268
H   -0.09371095   4.52978954   1.48888347
H   -0.66286548   3.20611308   1.02429876
O   -1.75584623   1.80689680   1.07447268
H   -2.41895902   1.63234687   0.40660623
H   -2.10747968   1.40988194   1.87131957
O    0.65798122  -0.86883644  -3.44350187
H    0.69984638  -1.19097802  -4.34389288
H    0.32907893  -1.61200294  -2.93777598
O    2.53711290  -3.11026903  -0.40420312
H    3.34525072  -3.60224133  -0.54949033
H    2.74505392  -2.21897733  -0.68454486
O    0.76521747  -2.60305838   1.67545798
H    0.04150670  -3.19816490   1.47969591
H    1.49510719  -2.93209596   1.15083706
O    0.88755681   3.32558606  -1.66359886
H    0.79605193   4.10657616  -2.20941308
H    0.59898114   3.60487886  -0.79471943
O   -2.58196525  -1.26874927   0.76471333
H   -3.04835675  -0.70136199   0.15088722
H   -2.75246175  -0.88377763   1.62434095
O    0.00218840  -2.63164741  -1.43166187
H   -0.61962707  -3.17082417  -0.94292290
H    0.86153724  -2.97543162  -1.18760482
O    1.65661815   1.53256050   1.39157020
H    1.20133202   2.37438058   1.40846255
H    2.39752632   1.67222380   0.80184052
O    2.33459116  -0.50029679  -1.24873994
H    2.78284010   0.34424698  -1.20345672
H    1.97633531  -0.53459138  -2.13570582
K   -0.01367265  -0.34708120   0.27271176
