49
Energy:   -884.34647112
O   -2.53619211  -1.11162793  -3.14382640
H   -3.39006332  -1.39519639  -3.47051392
H   -2.13784271  -1.90734457  -2.79114436
O   -1.90661004  -1.21175655   3.09057925
H   -1.05150656  -1.18024984   3.51957484
H   -2.51038672  -1.49045853   3.77906366
O   -0.70563243   2.54381536  -2.62526259
H   -0.51624486   1.85957106  -3.26727033
H   -0.99879776   3.28960621  -3.14879094
O    3.53390529   1.72678660   0.48195114
H    4.26199268   2.33748007   0.36717265
H    2.80711836   2.12749377   0.00503775
O    0.72852380  -0.95946932   3.97719276
H    1.09438355  -0.16077554   3.59710497
H    1.11824727  -1.01025445   4.84998617
O   -1.97385903   0.64571960  -1.06273388
H   -1.69055565   1.40251951  -1.57578840
H   -2.32258527   0.03348838  -1.71064962
O   -0.06504533   3.28498676   1.90319407
H   -0.38311902   4.06176287   2.36328085
H   -0.80422830   2.67705427   1.91927153
O   -1.73788569   1.14331399   1.66160397
H   -2.00629169   0.40534497   2.20895377
H   -2.20146788   1.00999091   0.83483414
O   -0.37283412   0.27444025  -4.14904307
H   -1.18225937  -0.19970293  -3.95864651
H   -0.22054075   0.12428589  -5.08204481
O   -1.12123418  -3.13832926  -1.96502617
H   -1.24832166  -3.02322760  -1.02330847
H   -1.07949441  -4.08675597  -2.08740431
O    1.32841007  -2.44959357   1.69275702
H    1.35347941  -2.10714539   2.58625163
H    2.15305420  -2.16083090   1.30184779
O    1.03919107   2.40584848  -0.48691628
H    0.51716855   2.60874728  -1.26316135
H    0.64361053   2.92749281   0.21139245
O   -1.17576980  -2.46828446   0.68575514
H   -1.68774332  -2.21136024   1.45263513
H   -0.33603644  -2.75664247   1.04342732
O    0.87896764  -1.18804729  -2.14125324
H    0.60774476  -0.67265485  -2.90088515
H    0.34593528  -1.98177898  -2.18706093
O    1.60372852   1.13068197   2.43355462
H    1.12629379   1.96029647   2.43881749
H    2.42987285   1.33201332   1.99402864
O    2.95011318  -0.93847223   0.01466614
H    3.40436627  -0.09870187   0.08301618
H    2.89005273  -1.10293656  -0.92638437
K    0.32819936  -0.14875191   0.30417334
