49
Energy:   -885.78515524
O    2.00225570  -1.70674740   0.89630581
H    2.56039742  -1.01382417   1.24924641
H    1.63011377  -2.13202302   1.66888777
O   -3.28023513  -0.41261865   1.87873327
H   -3.92105061  -0.20836655   2.55981217
H   -2.55177251   0.18490962   2.04765344
O   -0.29790247   0.72640855  -2.86474160
H   -0.28769081  -0.09525736  -3.35565168
H    0.57756403   1.09227473  -2.99096439
O    3.08034583   0.64175940   1.92089078
H    2.67014731   1.13595958   1.21114773
H    3.98817699   0.94502744   1.93103513
O   -1.35851419  -2.34395885   1.25034856
H   -0.79995299  -2.46888646   2.01757365
H   -2.12876705  -1.88563814   1.58633146
O   -2.18344205   2.41247000  -1.79446619
H   -1.57491358   1.89447012  -2.32134479
H   -2.72483617   2.87244267  -2.43598735
O    1.02145006   0.42161192   3.71829552
H    1.21501372   0.84767701   4.55330060
H    1.81635627   0.54021563   3.19840214
O   -2.81645588  -0.13108146  -0.84033246
H   -2.88762433   0.78431615  -1.11091353
H   -3.22458677  -0.15795233   0.02508015
O    0.04710236  -1.96358123  -3.66144955
H   -0.59061643  -2.32975459  -3.04869865
H   -0.06504272  -2.47830152  -4.46064812
O    2.11320437  -1.16964148  -1.96140579
H    2.38359045  -1.79464367  -1.28872794
H    1.61463776  -1.69308122  -2.58884026
O    0.58500064  -2.28365675   3.22527133
H    0.69801640  -1.39228609   3.55529804
H    0.74331705  -2.84299887   3.98573445
O   -0.63549379   3.31023941   0.30218752
H   -0.75117757   4.24703227   0.46114744
H   -1.22816679   3.11500098  -0.42365855
O   -0.94483025   1.01399977   1.85766939
H   -0.30243179   0.94374845   2.56380027
H   -0.84838364   1.90953177   1.53370593
O   -1.60385649  -2.50624270  -1.57226874
H   -1.61827112  -2.93496617  -0.71657005
H   -2.29043897  -1.84139786  -1.51918697
O    1.59570877   1.72972301  -0.09524278
H    1.94079534   1.82209316  -0.98328268
H    0.95827874   2.43876186  -0.01051546
O    2.36738979   1.44288403  -2.71806093
H    2.50175331   0.51065927  -2.54737030
H    3.06138947   1.67645145  -3.33453685
K   -0.09838027  -0.48036098  -0.34150792
