49
Energy:   -881.27121720
O   -2.08958559  -1.65813751  -2.65254025
H   -2.80859699  -2.17974187  -3.00916799
H   -2.01358304  -1.94475752  -1.74242793
O   -2.56503308  -1.08705038   2.42743028
H   -1.70710351  -0.91481112   2.81540237
H   -3.11303386  -1.35374200   3.16553771
O   -0.87220129   3.26914688  -2.04826181
H   -1.02761080   4.05774286  -2.56806573
H   -0.92186874   3.56682160  -1.13988152
O    3.11944962   2.06029196  -0.10258447
H    3.86391409   2.58076121  -0.40443917
H    2.58229573   1.93367279  -0.88467471
O    0.04862422  -0.42811598   2.91206786
H    0.73944847  -1.08023714   3.02925017
H    0.49122505   0.41316673   3.02422738
O   -2.11206370   0.83051269  -1.41776451
H   -2.27291143   0.14361353  -2.06470299
H   -1.89235685   1.60341023  -1.93794730
O   -0.99024716   3.73586194   0.69772450
H   -1.29856349   4.51313856   1.16357206
H   -1.57012977   3.03365538   0.99246836
O   -2.31427481   1.40507503   1.22268781
H   -2.62116818   0.65722374   1.73529559
H   -2.58283927   1.20744484   0.32544353
O    0.40488981  -0.85125716  -3.49604312
H    0.57314605  -1.04272246  -4.41868212
H   -0.48834729  -1.16072209  -3.34574074
O    0.55629817  -3.75841391   0.66771941
H    1.05715679  -3.40075925   1.40083307
H    0.60792009  -4.70735741   0.78205778
O    1.97911282  -2.39155301   2.63487087
H    2.62018972  -2.68983939   3.28006656
H    2.45827426  -1.76528249   2.09226476
O    1.14464048   1.39753958  -1.93177859
H    0.99087157   0.74477085  -2.61477197
H    0.52414407   2.09977952  -2.12690707
O   -1.57258348  -2.12617657   0.03740100
H   -2.08628043  -1.95045344   0.82573383
H   -0.96167207  -2.81554908   0.29775583
O    1.54097137  -1.80214881  -1.15336886
H    1.25184803  -2.67464317  -0.88617393
H    1.25342510  -1.72209602  -2.06284153
O    1.01386066   2.10491782   1.74590032
H    0.44585733   2.83816906   1.50936981
H    1.83943795   2.28625855   1.29671269
O    2.82404956  -0.51682327   0.86553232
H    3.15883455   0.34085158   0.60372185
H    2.69338916  -0.98531691   0.04110924
K    0.04003030   0.09428639   0.21801563
