49
Energy:   -885.83968798
O    1.73229598  -1.78143406   1.25029178
H    1.17171883  -2.50685212   1.52552577
H    2.17774229  -2.10593333   0.46766182
O   -0.51891898  -0.89541929   3.97524954
H    0.38670951  -0.59008038   3.92198571
H   -0.74010795  -0.82965727   4.90421814
O    0.20468675  -1.60876236  -2.38450935
H   -0.31118513  -2.24436518  -1.88840743
H    1.11352946  -1.87191667  -2.23964190
O    2.35758499   0.73283366  -1.19979909
H    2.05516064   1.34021227  -1.87497506
H    2.40368696   1.26243841  -0.40379327
O    2.05657651  -0.11785290   3.39231711
H    2.88632131  -0.18410982   3.86493264
H    2.12952199  -0.76184793   2.68791579
O    0.94003367   2.25060073  -3.03971893
H    0.39606934   1.63280500  -3.52825050
H    1.25163714   2.86994300  -3.69968125
O    1.59545701   1.65921768   1.31613309
H    0.97014944   2.33521121   1.57738974
H    1.83875283   1.22787415   2.13526785
O   -0.86008537   2.37506416  -0.95357152
H   -0.21957995   2.55161346  -1.64263973
H   -1.67064382   2.17962145  -1.42370873
O   -0.81381623   0.33275793  -4.02013865
H   -0.90365434   0.02523721  -4.92213199
H   -0.47139316  -0.42251009  -3.54207118
O    2.75542103  -1.97143622  -1.34543188
H    2.85122680  -1.01909806  -1.35568583
H    3.57421416  -2.29902663  -1.71757996
O   -0.40378591  -3.18688210   2.38457877
H   -0.54659383  -2.47951437   3.01344175
H   -0.56604495  -3.98767746   2.88320752
O   -0.66351632   3.21369913   1.67318574
H   -0.81366447   3.13363423   0.73123193
H   -0.88214507   4.12357734   1.87456839
O   -2.79513150  -0.50744606  -0.33849806
H   -3.06948333   0.10745460  -1.01883629
H   -2.87763122  -0.01456572   0.47789316
O   -1.14364752  -2.70559079  -0.24874672
H   -1.05554805  -3.04028514   0.64369377
H   -1.97681669  -2.23435996  -0.24717317
O   -1.68752935   0.64621402   1.98277557
H   -1.45998026   1.56529297   2.12330007
H   -1.41186347   0.20516007   2.78633738
O   -2.90472201   1.30325431  -2.44905060
H   -2.30713492   0.94123262  -3.10331493
H   -3.65984397   1.60446238  -2.95431921
K   -0.03678746  -0.12426924  -0.05497252
