49
Energy:   -888.19527487
O   -1.15607248  -3.40264808  -0.03947560
H   -1.74264823  -4.11971879  -0.28024588
H   -1.74123051  -2.68189945   0.19364096
O   -2.37289438  -0.14288805   3.13799046
H   -1.48807493  -0.50626984   3.17376855
H   -2.73185611  -0.29877609   4.01153339
O   -1.41883081   1.22200369  -2.22801620
H   -0.89680213   1.99434241  -2.01073574
H   -0.93329878   0.79495529  -2.93379248
O    2.63078989   0.30585514  -0.25808774
H    2.79095731   0.71339293  -1.10925822
H    2.93966945  -0.59426828  -0.36105901
O    0.14011516  -1.02407360   2.54941288
H    0.82215054  -0.36981194   2.70107459
H    0.61923889  -1.83348265   2.37184805
O   -3.60309620   1.21394018  -0.58958729
H   -2.99647684   1.27259741  -1.32769577
H   -4.44147745   1.51034235  -0.94383929
O    0.41985687   3.64342648   1.58750194
H    0.35540661   4.47243697   2.06165341
H   -0.45802247   3.26603904   1.64352378
O   -1.84250718   2.01072617   1.45569452
H   -2.57400985   1.97174925   0.83956427
H   -2.10952052   1.44635822   2.18124572
O    0.53244100  -0.06330879  -3.74199113
H    0.44004236  -0.48616501  -4.59573990
H    0.51478218  -0.78507791  -3.11352526
O    2.85830211  -2.45974070  -0.46132302
H    2.42046232  -2.85246564   0.29385596
H    3.60983655  -3.02923794  -0.62594604
O    1.15412785  -3.38611318   1.50973265
H    1.23818329  -4.15745706   2.07026379
H    0.33562584  -3.52394520   1.03298466
O    0.48324274   2.77388818  -1.06327304
H    1.32287444   2.72706552  -1.52050176
H    0.65627715   3.32425172  -0.29947272
O   -2.48544964  -1.06863939   0.53175104
H   -3.06148384  -0.44766656   0.08587079
H   -2.60961124  -0.88511048   1.46295074
O    0.45103951  -1.77484731  -1.59767502
H    1.32414984  -2.07672465  -1.34711510
H   -0.14172411  -2.44352062  -1.25454365
O    1.65066380   1.22123739   2.16640402
H    1.41723189   2.14833679   2.11920128
H    2.31333508   1.10563887   1.48542267
O    2.50357744   1.60094459  -2.68647718
H    1.87576506   1.07821038  -3.18530822
H    3.11553050   1.93250541  -3.34360177
K   -0.11361505   0.33601368   0.11567852
