49
Energy:   -883.14476412
O   -2.98064298  -1.39179891  -1.89648229
H   -3.70506823  -1.79729073  -2.37294455
H   -2.31812672  -2.08001453  -1.83595692
O   -2.54476917  -1.26494594   2.76395684
H   -1.81975265  -0.73263286   3.09141018
H   -3.04596107  -1.49511851   3.54629891
O   -0.82205590   3.21770074  -1.98733977
H   -1.10959701   4.05388569  -2.35387309
H   -1.20171561   3.19748897  -1.10888554
O    3.59255228   1.77974580   0.46074823
H    4.43797241   2.18197192   0.26147251
H    3.04784471   1.97587603  -0.30152366
O   -0.15016455   0.06234272   3.07963925
H    0.41628756   0.83225119   3.02860199
H    0.44853529  -0.66537731   3.24760917
O   -0.96313805   0.45307429  -2.38920657
H   -1.79496718  -0.02051408  -2.38671759
H   -1.21267353   1.37619848  -2.43169927
O   -1.73143975   2.65131085   0.51316553
H   -2.08430402   3.19543482   1.21718808
H   -2.29801897   1.87993453   0.49907936
O   -2.71171415   0.12805348   0.39962880
H   -2.88901382  -0.38078695   1.19075337
H   -2.99775151  -0.43687422  -0.31819511
O    1.49016483   0.17500203  -3.54809034
H    1.55258963   0.15096230  -4.50295006
H    0.55171161   0.23811688  -3.37045614
O   -0.87025912  -3.12370216  -1.46558590
H   -0.80929277  -3.01057443  -0.51705173
H   -0.80589228  -4.06935417  -1.59911878
O    1.47548732  -2.17405769   2.96099446
H    2.04844762  -2.70458457   3.51460946
H    2.06607337  -1.75970331   2.33190750
O    1.62892511   1.96686656  -1.43991648
H    1.75933205   1.43681022  -2.22621550
H    0.92914622   2.57631972  -1.67466785
O   -0.60368544  -2.36812726   1.12744049
H   -1.35855836  -2.18471984   1.68669038
H    0.11593552  -2.52386062   1.73909777
O    1.43608242  -1.55217234  -1.41203616
H    0.73452319  -2.17753953  -1.59359161
H    1.58795155  -1.11236341  -2.24853824
O    1.39234703   2.13392495   2.09081958
H    1.36158120   3.02601038   2.43646230
H    2.25306207   2.06624137   1.67751533
O    2.61203952  -0.77122502   0.93471246
H    3.17476480  -0.01388433   0.77344504
H    2.50061975  -1.17502723   0.07403757
K    0.08823105   0.30831178   0.25794266
