49
Energy:   -881.74172099
O   -2.53286762  -1.22832316  -2.76940196
H   -3.36265361  -1.61092332  -3.05454082
H   -1.98628182  -1.98116723  -2.54423175
O   -1.78817988  -1.29026778   2.23339690
H   -2.39424962  -0.55160060   2.29068661
H   -1.11773646  -1.10209874   2.89015400
O   -1.09406728   2.58166975  -2.45043074
H   -0.90898273   1.92743476  -3.12419044
H   -1.38417974   3.35269413  -2.93786075
O    3.30122013   1.93887141   0.65756402
H    2.55958060   2.24754716   0.13706240
H    4.03959053   2.47205916   0.36302739
O    0.76354540  -0.59660739   3.06839631
H    1.37368396  -1.32563680   2.95668732
H    1.32082583   0.15263689   3.27887999
O   -2.29036403   0.71929770  -0.78421800
H   -2.53347374   0.04337737  -1.41688002
H   -2.02350621   1.46556890  -1.32096565
O   -0.45955374   2.26586343   1.82117315
H    0.08975221   2.27819769   2.60497330
H   -1.34386236   2.10505221   2.15036895
O   -3.04765436   1.15205479   1.87415510
H   -3.00827358   1.07929082   0.92053756
H   -3.94290772   1.43768425   2.05627890
O   -0.65972289   0.37802333  -4.02067361
H   -0.58911441   0.23466387  -4.96443965
H   -1.38133606  -0.18740862  -3.74536833
O   -0.69235315  -3.16228518  -2.08543366
H   -0.58242814  -3.22381163  -1.13655915
H   -0.55002448  -4.05438863  -2.40186032
O    2.20124233  -2.69632082   1.94400024
H    2.91432678  -3.29077531   2.17716599
H    2.58378092  -2.10543551   1.29534731
O    0.88499762   2.39393126  -0.53312692
H    0.30990229   2.59653199  -1.27099558
H    0.38855801   2.66424465   0.23934328
O   -0.22604436  -2.86663394   0.57660195
H   -0.89791654  -2.66429223   1.22766067
H    0.56133487  -3.04362474   1.09132523
O    0.87775239  -0.87048592  -2.05804744
H    0.50411300  -1.74411451  -2.17379953
H    0.54712730  -0.36752398  -2.80232439
O    2.08165715   1.81666953   3.16785358
H    2.59449533   2.24120824   3.85560043
H    2.61030093   1.91901433   2.37646674
O    2.69356219  -0.71135902   0.11516833
H    3.10077401   0.14772952   0.22642142
H    2.47301064  -0.75371283  -0.81531274
K    0.01738099  -0.09753460   0.45234225
