49
Energy:   -887.28577251
O   -0.68342739  -2.19678503   3.04876400
H   -1.25986172  -2.74146229   3.58475093
H   -1.27682485  -1.61763191   2.57054546
O   -1.70767860   2.17810315   1.93503326
H   -0.78774480   1.92378090   2.00765457
H   -1.90902635   2.59260355   2.77400904
O   -2.16899718   0.93337798  -1.89593915
H   -2.18116883   1.82717006  -1.55356592
H   -1.71363826   1.00394652  -2.73492675
O    2.74124913  -0.35726642  -0.74388567
H    2.54863543  -0.73143739  -1.60361115
H    2.99816674  -1.10745593  -0.20775053
O    0.83481213   1.15593179   1.73448822
H    1.58446312   1.62519848   1.36836801
H    1.22175216   0.50554517   2.32058250
O   -3.53910526  -1.20472202  -0.87036088
H   -3.25220879  -0.43517751  -1.36201474
H   -4.43419857  -1.36163842  -1.17105517
O    0.66605743   2.31444899  -1.52720212
H    1.44743389   2.52647230  -1.01658603
H   -0.01373080   2.88928602  -1.17551731
O   -1.72619496   3.33489181  -0.55552331
H   -2.17490757   4.17983949  -0.58638186
H   -1.80724716   3.05325830   0.35570935
O   -1.15834706  -2.40230673  -1.78396338
H   -2.07671090  -2.26833536  -1.54967427
H   -0.79590345  -2.90644494  -1.05546414
O    3.01008899  -2.34785590   1.15972294
H    2.74850043  -1.89408824   1.96090843
H    3.72953763  -2.91804777   1.43084420
O    1.77436778  -0.97023233   3.23906191
H    2.07438360  -0.88774696   4.14427930
H    0.93661190  -1.42858418   3.30471639
O   -0.20964287   1.17398236  -3.87091859
H   -0.08781628   1.63006482  -4.70361236
H    0.23307788   1.72714172  -3.22729999
O   -2.03731677  -0.52998595   1.35208581
H   -2.73475252  -0.75845283   0.73757941
H   -2.21288106   0.38135057   1.58633945
O    0.34768028  -2.74489004   0.54391966
H   -0.02644205  -2.76942823   1.42463653
H    1.29054109  -2.83675910   0.68105252
O    2.84880979   2.21940288   0.17038375
H    3.70262714   2.65166246   0.18986292
H    3.02726716   1.35183018  -0.19252452
O    1.07385715  -1.09263439  -2.89392067
H    0.71669921  -0.41879700  -3.47237829
H    0.40203945  -1.77422886  -2.87598170
K   -0.02147913  -0.20745282  -0.53239291
