49
Energy:   -885.91368894
O   -0.77527182  -3.90797053  -0.09646364
H   -1.26890542  -4.71570263  -0.23833174
H   -1.42410657  -3.28431171   0.22956550
O   -2.34217476  -0.06773879   2.85893992
H   -1.49595044  -0.45292244   3.08646971
H   -2.85138435  -0.11199880   3.66824734
O   -2.28348657   0.13123453  -1.31144876
H   -2.52823385   1.05595957  -1.27660314
H   -2.00334979  -0.00895365  -2.21593896
O    3.88228633   0.53175978  -0.01005850
H    4.74100209   0.86804714  -0.26647592
H    3.25933718   1.05405313  -0.51540575
O    0.19115037  -1.13115973   2.83973137
H    0.93983527  -0.53711345   2.89275747
H    0.57658680  -1.98679523   2.65116176
O   -2.38716160   2.85983207  -1.10037066
H   -1.68514820   2.91213592  -1.74896402
H   -3.01013360   3.53630729  -1.36592483
O    1.15931096   3.28315619   1.39387754
H    1.18284183   4.13501960   1.82977532
H    0.25125955   2.99348525   1.48199812
O   -1.22164318   1.95320157   1.27276528
H   -1.80177222   2.32712887   0.60954547
H   -1.80685291   1.47995242   1.86420138
O   -0.87712017  -0.12748878  -3.67603302
H   -1.11936423  -0.47531485  -4.53426766
H   -0.44281338  -0.85764892  -3.23503911
O    2.32560087  -1.72456340  -0.36035586
H    2.35015218  -2.33859040   0.37353782
H    3.07234532  -1.14419826  -0.21277241
O    1.30149182  -3.39255085   1.66732292
H    1.63976989  -4.17696977   2.09916403
H    0.61538457  -3.71676738   1.08390855
O   -0.28064769   2.47117877  -2.89581841
H   -0.44853111   1.60619167  -3.26977606
H   -0.02373279   3.01029042  -3.64387269
O   -2.25635632  -1.75917181   0.66248252
H   -2.57657125  -1.20369277  -0.04824759
H   -2.51215751  -1.29805265   1.46133589
O    0.14250144  -2.02327669  -1.96957859
H   -0.24884431  -2.79404837  -1.55849299
H    1.06215534  -2.05139717  -1.70561308
O    2.04522831   0.73759437   2.05426814
H    1.86354154   1.67734993   2.04525354
H    2.85057815   0.64397324   1.54546703
O    1.54958284   1.80543730  -0.92477529
H    1.47874834   2.47888767  -0.24825558
H    1.02845955   2.14186882  -1.65379943
K    0.07663274  -0.23550317   0.21436004
