49
Energy:   -882.96563855
O   -1.18379314  -2.92766193   1.45382481
H   -1.80321855  -3.65083508   1.35602595
H   -1.69836576  -2.14344296   1.26291260
O   -2.24286349  -0.45836606   1.00598219
H   -2.26363439   0.01246583   1.83911949
H   -2.90812168  -0.02686610   0.46981881
O   -1.55514091   0.04826863  -2.57454679
H   -1.24213529   0.81873496  -3.04850983
H   -1.06833776  -0.68230889  -2.95600586
O    3.83105396   0.47953170  -0.82426166
H    4.64257626   0.79704113  -1.22030604
H    3.18010323   0.54870351  -1.52262422
O    1.38094431  -0.43968423   2.05550592
H    2.04114193  -1.05918126   1.74470955
H    0.93008893  -0.90337324   2.76116432
O   -3.62691842   0.88689146  -0.96649114
H   -3.09589104   0.49031063  -1.65711796
H   -4.51369213   0.90545786  -1.32637934
O   -1.56710924   2.77488616  -0.94500352
H   -1.38156169   3.01885276  -0.03820461
H   -2.43125791   2.36460423  -0.91112611
O   -0.62026070   2.49672684   1.62911801
H   -0.89570910   2.03541737   2.42130082
H    0.30046289   2.70865610   1.78269501
O    0.40290829  -1.78654029  -3.25367945
H    0.52653758  -2.54193348  -3.82842179
H    0.47805254  -2.14347646  -2.36870387
O    3.15091324  -1.86811905   0.47558383
H    3.90310424  -2.44271666   0.61798510
H    3.51354200  -1.10519920   0.02537773
O   -0.32346391  -1.72787450   3.78895432
H   -0.17619256  -2.32264810   4.52433677
H   -0.63435301  -2.29304418   3.08173225
O   -0.28141929   2.39904215  -3.34110172
H   -0.33715236   3.07682917  -4.01469687
H   -0.70701791   2.78565590  -2.57583871
O   -1.69300001   0.67963297   3.47401003
H   -2.19725121   0.93004259   4.24812734
H   -1.21305535  -0.10356499   3.74324211
O    0.59728416  -2.17624520  -0.54974356
H    0.05767924  -2.59304439   0.12207249
H    1.49124927  -2.24094160  -0.21377837
O    2.11788595   1.90656058   0.90796872
H    2.05848149   1.19568667   1.54621729
H    2.88003710   1.68546505   0.37273583
O    1.63599512   0.57833065  -2.46235112
H    1.17749194   1.28543817  -2.91622956
H    1.35683275  -0.21780141  -2.91453910
K   -0.00678808   0.53364629  -0.23905977
