13
Energy:   -182.68242285
C   -1.22972157   3.70530472  -2.98230084
H   -1.78246798   4.56176943  -2.65697058
H   -1.80828911   3.15764510  -3.69660305
H   -0.31311742   4.02280699  -3.43388497
C   -0.92069943   2.80388867  -1.77252631
N   -0.69061839   2.13274346  -0.87179417
C    1.45644397  -3.86168953   2.61575056
H    2.10660471  -4.16069638   1.82027203
H    0.80336757  -4.67144988   2.86610727
H    2.03984219  -3.59603597   3.47247327
C    0.62098152  -2.64823399   2.16727742
N   -0.00105824  -1.74476118   1.83336878
Na  -0.28126782   0.29870856   0.63883059
