13
Energy:   -179.86114698
C    3.55820412  -0.04380799   3.46059382
H    3.97459026   0.93233013   3.59725808
H    4.34344421  -0.74092258   3.25485528
H    3.04282558  -0.33951315   4.35044916
C    2.57051867  -0.01979890   2.27928056
N    1.83514195  -0.00192303   1.39973915
C   -3.77721146  -0.12891865  -3.19388569
H   -4.50229949  -0.12083125  -2.40706797
H   -3.78049639  -1.08609699  -3.67210943
H   -4.01944965   0.62837179  -3.90993802
C   -2.38025449   0.14713116  -2.60744923
N   -1.34015653   0.35266279  -2.17082062
Na   0.47514323   0.42131667  -0.38090510
