13
Energy:   -181.68846752
C   -0.20426917   3.45677809  -0.83983787
H   -1.07491610   3.42364477  -1.46094679
H    0.64628224   3.12893947  -1.40017993
H   -0.04444129   4.45970077  -0.50293992
C   -0.40537969   2.53284726   0.37568933
N   -0.55511561   1.84493876   1.28070458
C    0.56544503  -3.55109510  -0.38036323
H    0.56574506  -4.47475989   0.15976958
H    1.54147564  -3.37152622  -0.78038618
H   -0.14327105  -3.60583138  -1.18012854
C    0.18027945  -2.40137186   0.56904919
N   -0.10649384  -1.54535065   1.27592988
Na  -0.96534068   0.10308600   2.88363990
