13
Energy:   -177.43064280
C    0.81446844  -4.46213947   2.13060579
H    1.54233883  -5.05812439   1.62079520
H   -0.16586315  -4.82849408   1.90782034
H    0.98440064  -4.51672422   3.18561416
C    0.93324871  -2.99852609   1.66657226
N    1.02168602  -1.90879941   1.32107819
C   -1.02101088   4.36086901  -2.34814904
H   -1.91148268   4.24513473  -2.93001305
H   -0.19321728   4.55504831  -2.99772680
H   -1.14196579   5.17965365  -1.67001873
C   -0.75671598   3.06952673  -1.55179276
N   -0.55993642   2.10806371  -0.95886931
Na   0.45404955   0.25451153   0.62408375
