13
Energy:   -172.35931741
C    3.54078398   3.30715275   0.88881205
H    3.91086028   3.28024377   1.89241537
H    2.76263926   4.03787390   0.81507948
H    4.33676670   3.56523661   0.22195126
C    2.98247636   1.92273904   0.51027367
N    2.56679096   0.89198011   0.22843464
C   -3.79867478  -3.15182152  -0.81368986
H   -3.56652421  -4.11001476  -0.39791106
H   -3.98174811  -3.25321787  -1.86302394
H   -4.67112731  -2.75758296  -0.33588065
C   -2.61362775  -2.19421170  -0.58953151
N   -1.73130637  -1.48122765  -0.42263544
Na   0.26269099  -0.05714971  -0.13429399
