13
Energy:   -181.85793125
C    1.24125698  -4.58893324   0.32838682
H    1.71445782  -5.00204552  -0.53782296
H    0.19184317  -4.79495000   0.29393639
H    1.66227989  -5.02828882   1.20850355
C    1.46461506  -3.06550390   0.35795413
N    1.63091531  -1.93124151   0.37996834
C   -1.73040075   4.46925241  -0.46834117
H   -2.40474074   4.45219290  -1.29892815
H   -0.99070412   5.22636357  -0.62496394
H   -2.27421042   4.68197105   0.42827519
C   -1.04178479   3.09797296  -0.33795422
N   -0.52907891   2.07699309  -0.24087520
Na   1.06555150   0.40621701   0.51186122
