13
Energy:   -182.72397522
C    1.57414425   0.58191940   4.05965533
H    2.61026348   0.55493729   4.32541667
H    1.14885772  -0.39217655   4.18281189
H    1.06188948   1.27721750   4.69136309
C    1.43226548   1.02201475   2.59071473
N    1.32663029   1.34968574   1.49702167
C   -2.08352735  -1.19957871  -3.72302728
H   -2.32084287  -0.61395530  -4.58652410
H   -2.96639438  -1.34316954  -3.13580794
H   -1.70141451  -2.15041102  -4.03093441
C   -1.02125679  -0.46728615  -2.88223666
N   -0.23034807   0.07793895  -2.25622983
Na   1.16973325   1.30286366  -0.73222315
