13
Energy:   -172.32195165
C    1.20460805   2.11916605  -0.85562985
H    2.22529059   2.39669025  -0.69411314
H    0.67046804   2.16970900   0.07013413
H    0.75999866   2.78974015  -1.56100349
C    1.14425557   0.68186663  -1.40529151
N    1.09932040  -0.38826813  -1.81453960
C   -1.68547408  -0.89465119   1.65607207
H   -2.59703051  -0.77544957   1.10857228
H   -1.27727771   0.06802099   1.88308988
H   -1.88228380  -1.42219580   2.56594114
C   -0.67775120  -1.69247229   0.80779376
N    0.07254429  -2.28648635   0.17621199
Na   0.94333169  -2.76566973  -1.93723766
