13
Energy:   -177.88718538
C    1.60188454   3.70765898   2.79677710
H    2.09528279   3.13965837   3.55758828
H    0.73239811   4.17592136   3.20862995
H    2.26761184   4.45740794   2.42316934
C    1.18501999   2.77212777   1.64673131
N    0.87464538   2.07558226   0.79046995
C   -1.47070066  -3.80672279  -2.74270222
H   -1.06102670  -4.74417791  -2.42926112
H   -1.05020918  -3.53173450  -3.68740717
H   -2.53281478  -3.89540550  -2.83729640
C   -1.13686735  -2.72562704  -1.69800739
N   -0.88831327  -1.92070211  -0.92018460
Na  -0.61691068   0.29601315  -0.10850705
