13
Energy:   -177.86071371
C   -0.52942776  -2.35186769   3.06311881
H   -1.47377919  -2.24881884   2.57069472
H   -0.47101178  -1.65403119   3.87213727
H   -0.43205936  -3.34738538   3.44307016
C    0.60552136  -2.07174215   2.06061186
N    1.45054257  -1.86317595   1.31419986
C   -0.51900728   2.72171923  -2.95459083
H   -1.11604774   2.19989541  -3.67302160
H    0.19404043   3.33677625  -3.46269212
H   -1.14924700   3.33525031  -2.34526613
C    0.22110439   1.70450517  -2.06627204
N    0.77215118   0.94714306  -1.40487833
Na   2.44722018  -0.70826823  -0.41711164
