13
Energy:   -173.87266567
C    1.86109511  -2.13130148  -2.52150300
H    2.20566564  -3.02981831  -2.98930514
H    2.59585628  -1.78824710  -1.82340644
H    1.69921724  -1.38068236  -3.26666446
C    0.54064506  -2.41218168  -1.78047805
N   -0.44249002  -2.62130977  -1.22875129
C   -0.95858023   2.99748400   2.36817555
H    0.05239509   3.25089089   2.12607220
H   -1.09649467   3.05399026   3.42774421
H   -1.62350148   3.68249682   1.88491966
C   -1.25814624   1.56553180   1.88716296
N   -1.48118675   0.49937830   1.52902723
Na  -2.09447503  -1.68623138   0.38700658
