13
Energy:   -173.25239027
C    1.23449587  -2.91613301  -0.03373814
H    1.40240906  -2.68581898   0.99760118
H    2.11637451  -2.69310088  -0.59716145
H    1.00079863  -3.95551204  -0.13361770
C    0.05992764  -2.07268225  -0.56343644
N   -0.81459179  -1.44469482  -0.95782090
C    0.05688554   2.86342725   0.66405619
H    0.67677082   3.22118216  -0.13133921
H    0.59574300   2.13862691   1.23781241
H   -0.22201799   3.68171218   1.29454940
C   -1.20942745   2.21397853   0.07561099
N   -2.15225503   1.73043443  -0.36251321
Na  -2.74511282  -0.08141949  -1.49000311
