13
Energy:   -172.22582672
C   -2.49536829   2.09362775   0.34849885
H   -3.54203888   1.94394844   0.18425224
H   -2.19682399   3.02703207  -0.08106695
H   -2.29742730   2.10535543   1.39996493
C   -1.70351132   0.94876850  -0.31018151
N   -1.11393781   0.09636874  -0.80059898
C    2.54399260  -1.53470141   0.82369907
H    2.55624808  -0.53534506   1.20584678
H    3.54800048  -1.89149679   0.72590178
H    2.00460684  -2.16749105   1.49715239
C    1.85764409  -1.54876484  -0.55482476
N    1.34662644  -1.55923571  -1.58119841
Na  -0.50801096  -0.97806608  -2.85744541
