13
Energy:   -176.37037588
C   -1.16315542  -0.18605122  -3.60657927
H   -2.21202765  -0.05476509  -3.44065406
H   -0.90537357  -1.21459764  -3.46326191
H   -0.92096622   0.10629533  -4.60696768
C   -0.37314663   0.68457392  -2.61184414
N    0.21505082   1.33279392  -1.87121862
C    0.45878675  -0.80794701   3.70705264
H   -0.22039284  -0.32167759   4.37575087
H    1.35632480  -1.06080836   4.23182467
H    0.00621777  -1.69889101   3.32456184
C    0.79587539   0.13841486   2.53984639
N    1.04685322   0.84302429   1.67080827
Na   1.91595358   2.23963561  -0.24931903
