13
Energy:   -179.28968986
C   -3.34587916  -0.91266449   3.18565974
H   -3.05128997  -1.92149082   3.38662448
H   -4.22659727  -0.91259658   2.57801288
H   -3.54895461  -0.40991317   4.10810245
C   -2.21001281  -0.18439123   2.44334869
N   -1.36430868   0.35784132   1.89066438
C    2.97127662   0.38809506  -3.56605548
H    3.60917418  -0.46942323  -3.51458447
H    3.51706071   1.21487517  -3.97034928
H    2.13327774   0.17199299  -4.19530651
C    2.47375096   0.74336115  -2.15260076
N    2.10332050   1.00787290  -1.10021948
Na   0.93918180   0.92644093   0.90670336
