13
Energy:   -182.97065217
C   -2.69050443  -1.55255836  -3.45444839
H   -2.69000555  -0.83090327  -4.24445716
H   -3.64958978  -2.02413196  -3.40274999
H   -1.93987837  -2.29082614  -3.64528943
C   -2.39119636  -0.84993381  -2.11716255
N   -2.16834789  -0.32679789  -1.12149246
C    3.31512359   1.27806609   2.97352568
H    3.94877766   1.13701735   2.12294473
H    3.54059733   0.53817470   3.71286418
H    3.47932816   2.25293787   3.38286778
C    1.84228731   1.14287449   2.54448426
N    0.74569376   1.04221820   2.22504342
Na  -1.34228543   0.48386273   1.02386994
