13
Energy:   -185.21837318
C    2.02984591  -2.05551620   2.57357728
H    1.39756835  -2.91488069   2.65492804
H    1.62884907  -1.26025709   3.16658956
H    3.01131188  -2.30053198   2.92227618
C    2.10441146  -1.61061205   1.10113025
N    2.15992891  -1.27936068   0.00482650
C   -2.77013815   2.21988664  -1.67586606
H   -3.58633683   1.52833282  -1.65411291
H   -2.88823753   2.88502099  -2.50565394
H   -2.75572809   2.78333871  -0.76635343
C   -1.44618470   1.44695980  -1.82191862
N   -0.46044117   0.87148062  -1.93066139
Na   1.57515089  -0.31386090  -2.06876146
