13
Energy:   -177.93611042
C    2.59019242   1.29660113   2.51037273
H    2.93323046   2.24615317   2.86473979
H    3.32464699   0.54892425   2.72590660
H    1.67135505   1.04485316   2.99746610
C    2.36184703   1.36838084   0.98908839
N    2.19183352   1.42182409  -0.14357696
C   -3.27781781  -1.46863716  -1.64652631
H   -3.84123317  -0.59752909  -1.90850732
H   -3.56870011  -1.80186258  -0.67223303
H   -3.46693449  -2.24354614  -2.35972338
C   -1.77607850  -1.12749584  -1.64525287
N   -0.65796532  -0.87350061  -1.64430474
Na   1.51562392   0.18583479  -2.06744901
