13
Energy:   -173.25672572
C   -3.14768451  -1.58259754  -3.65419419
H   -3.12624960  -1.00420426  -4.55413972
H   -4.07108392  -1.41072182  -3.14165993
H   -3.06182814  -2.62143414  -3.89574397
C   -1.97309680  -1.16727516  -2.74895885
N   -1.09856285  -0.85804877  -2.07496999
C    2.83764118   1.56629860   3.87669848
H    3.27655191   0.70390689   4.33335820
H    1.97625895   1.86656829   4.43594607
H    3.55020966   2.36440018   3.86331455
C    2.42011766   1.22666385   2.43381167
N    2.10925242   0.97379034   1.35951686
Na   0.30847404  -0.05734646  -0.23297916
