13
Energy:   -172.49452927
C   -1.96941980   1.60003674   0.32464214
H   -1.55955476   2.25243054  -0.41784904
H   -2.87660100   2.01964354   0.70654722
H   -2.17458015   0.64555544  -0.11327769
C   -0.95837697   1.43089648   1.47389579
N   -0.20560963   1.30496386   2.32956738
C    1.44682354  -1.48248481  -1.74370214
H    0.48790903  -1.29054033  -2.17791459
H    1.79050173  -2.44817808  -2.05065637
H    2.14151055  -0.73659617  -2.06921587
C    1.33247374  -1.44238694  -0.20847698
N    1.24733512  -1.41253225   0.93456793
Na   1.29758861  -0.44080802   3.01187221
