13
Energy:   -172.39188195
C    2.31190419  -2.10708250   1.02028904
H    2.80374030  -1.70338335   0.16004232
H    2.07843999  -3.13685406   0.84718767
H    2.95626290  -2.02550460   1.87061015
C    1.01264461  -1.32341603   1.28371156
N    0.04528680  -0.73994072   1.47984159
C   -1.46496330   1.73386412  -2.05484532
H   -2.40840388   1.71780549  -2.55938687
H   -0.91137831   0.85319230  -2.30556405
H   -0.91366210   2.59973901  -2.35688298
C   -1.69732472   1.77827316  -0.53312392
N   -1.87032835   1.81133771   0.59986683
Na  -1.94221813   0.54196947   2.54825398
