13
Energy:   -174.61885639
C   -1.77019694   0.82427752   3.84141878
H   -2.12369308   1.57069035   4.52171911
H   -0.78612217   0.51746729   4.12840907
H   -2.42779825  -0.01948023   3.86449382
C   -1.73130440   1.40595984   2.41603005
N   -1.70234714   1.83904877   1.35476334
C    2.14033843  -1.47410962  -3.61984944
H    3.06918330  -1.85236476  -3.24692794
H    2.33139328  -0.74047351  -4.37494890
H    1.57064922  -2.27713392  -4.03878293
C    1.34844520  -0.82983671  -2.46684574
N    0.75884470  -0.35014625  -1.60838208
Na  -0.67739216   1.38610122  -0.77109715
