13
Energy:   -173.56084074
C   -3.08795622   1.66395869  -2.66245325
H   -3.19858336   2.03076019  -3.66151205
H   -3.07299190   2.48767644  -1.97969105
H   -3.90888569   1.01966481  -2.42610755
C   -1.76874617   0.87780108  -2.54738353
N   -0.78653432   0.29247100  -2.46170889
C    2.42222006  -1.43266779   3.33113094
H    1.65818610  -0.87772688   3.83431369
H    3.37124285  -1.21696067   3.77579403
H    2.21785343  -2.47946537   3.41685254
C    2.45010963  -1.03521816   1.84356381
N    2.47087469  -0.73929884   0.73600247
Na   1.23321088  -0.59099451  -1.19880113
