13
Energy:   -176.26511381
C    1.70736159   3.74175495   0.01408803
H    1.94025159   4.35923696  -0.82815801
H    2.41009213   3.92916288   0.79891104
H    0.71956507   3.96628623   0.35867882
C    1.78245616   2.26015528  -0.39921963
N    1.83836748   1.15703698  -0.70694596
C   -2.48249024  -3.23932508   0.61789064
H   -3.18732554  -2.44482884   0.74782562
H   -2.20265434  -3.62790650   1.57475815
H   -2.92615986  -4.01757814   0.03275943
C   -1.23225398  -2.70343539  -0.10414228
N   -0.30139626  -2.30444116  -0.64172861
Na   1.93418620  -1.07611816  -1.46471724
