13
Energy:   -171.97169537
C   -2.86009467   0.65557739  -4.01325649
H   -2.25461319   0.62047810  -4.89476679
H   -3.04342966   1.67553920  -3.74686340
H   -3.79130992   0.16288980  -4.20032914
C   -2.12741487  -0.05278784  -2.85870072
N   -1.58190146  -0.58019795  -1.99908147
C    3.04460683  -0.15638119   3.91473018
H    3.18901422  -1.06009920   4.46911313
H    2.68447441   0.60978421   4.56909575
H    3.97487819   0.15046861   3.48422178
C    2.01619241  -0.40004304   2.79464416
N    1.25049113  -0.58146037   1.96068920
Na  -0.50089342  -1.04376773   0.52050382
