13
Energy:   -178.21971410
C   -0.79282174  -1.96789904   4.60536398
H    0.05250590  -1.61686184   5.15952483
H   -0.82991631  -3.03632021   4.65007753
H   -1.68885217  -1.56197663   5.02638125
C   -0.66645893  -1.51962643   3.13747975
N   -0.57237608  -1.18586710   2.04457322
C    1.05490153   2.23456204  -4.40634601
H    0.27878514   2.55233600  -5.07084827
H    1.82555179   1.74642379  -4.96555823
H    1.46399640   3.08549843  -3.90291008
C    0.47397680   1.25504525  -3.36968149
N    0.04145194   0.52575048  -2.59783764
Na  -0.64074427  -0.51106473  -0.31021884
