13
Energy:   -177.88502073
C   -3.29239539   0.01124792  -1.36195597
H   -3.71215008  -0.86411347  -1.81189889
H   -3.74565446   0.88268053  -1.78629135
H   -3.47387454  -0.00768848  -0.30762878
C   -1.77471117   0.04415673  -1.62109224
N   -0.64472628   0.06865884  -1.81403097
C    2.46109673  -0.02431404   2.38689275
H    1.93326397   0.84020128   2.73172027
H    3.46397026  -0.00196754   2.75924259
H    1.96927523  -0.90671288   2.73957249
C    2.48524847  -0.03073742   0.84709554
N    2.50323053  -0.03551992  -0.29935347
Na   1.82742673   0.02410843  -2.46227197
