13
Energy:   -178.09858127
C   -3.10055709   3.62851796   1.12913407
H   -2.58302643   4.46764961   1.54497090
H   -3.70183568   3.16953600   1.88590266
H   -3.72713303   3.95780216   0.32671672
C   -2.07821986   2.60746163   0.59633901
N   -1.31704332   1.84723879   0.19964887
C    3.06336010  -3.75876397  -0.67811224
H    3.10342578  -4.26597632  -1.61940420
H    2.68493243  -4.42398300   0.06966796
H    4.04632036  -3.43660412  -0.40443132
C    2.13561880  -2.53500637  -0.79349611
N    1.44487323  -1.62386322  -0.87940465
Na   0.02928470   0.36599084  -1.37753166
