13
Energy:   -175.25335536
C    0.64415748   2.32010232  -2.69680380
H   -0.36388460   2.36638282  -3.05262603
H    1.10587365   1.42146674  -3.04918338
H    1.18932013   3.16674970  -3.05858414
C    0.64583174   2.32831718  -1.15682662
N    0.64707830   2.33443351  -0.01024362
C   -1.29250815  -2.87965285   1.85499710
H   -1.12713487  -3.54532402   2.67623625
H   -1.26666155  -3.43088319   0.93827677
H   -2.24841783  -2.41108175   1.96259309
C   -0.19192448  -1.80261452   1.83756077
N    0.62751009  -1.00071053   1.82457863
Na   1.63076009   1.13281458   1.93002499
