13
Energy:   -177.02017061
C    2.93654876   1.79449028  -1.62834807
H    2.48905451   2.63068555  -2.12375351
H    2.77635219   0.90920314  -2.20757413
H    3.98737945   1.96459132  -1.52009102
C    2.29875748   1.62032723  -0.23748880
N    1.82389288   1.49065492   0.79806915
C   -3.04672943  -2.20180419   0.42131211
H   -2.59866838  -2.32484229  -0.54253596
H   -3.98152420  -1.69161106   0.31757773
H   -3.21169860  -3.16224250   0.86317467
C   -2.10876280  -1.37670335   1.32188259
N   -1.41040400  -0.76237827   1.99239825
Na   0.04580214   1.10962923   2.54537699
