13
Energy:   -179.74989771
C   -0.90338850   1.22321304   4.72529665
H   -0.40951734   2.10378895   5.07966582
H   -0.37918700   0.35677164   5.07082694
H   -1.90719788   1.20391313   5.09528764
C   -0.92391700   1.23064735   3.18545142
N   -0.93920141   1.23618253   2.03896666
C    1.11236611  -1.63128691  -4.58312420
H    1.29927286  -2.66808151  -4.39597983
H    1.98701081  -1.18160783  -5.00465056
H    0.29597813  -1.53397670  -5.26791649
C    0.75951337  -0.92633216  -3.26019799
N    0.49679847  -0.40146131  -2.27521929
Na  -0.48853062   0.98822978  -0.40840678
