13
Energy:   -181.65216721
C   -3.07565615  -2.04433069   3.21639796
H   -3.57778050  -2.84149445   2.70914926
H   -3.78000350  -1.27621130   3.45885725
H   -2.63133681  -2.41751534   4.11540443
C   -1.97872451  -1.46542052   2.30359788
N   -1.16200905  -1.03439558   1.62397672
C    3.00722798   1.90429531  -3.38042162
H    3.25315552   1.01802624  -3.92718204
H    3.90607026   2.37319797  -3.03820540
H    2.47281608   2.57886153  -4.01623875
C    2.12876727   1.53411919  -2.17092733
N    1.47471334   1.25850624  -1.27040386
Na  -0.03723993   0.41236139   0.37599551
