13
Energy:   -175.53672869
C   -1.45530533  -2.51072157  -2.42401892
H   -2.39317781  -3.02040191  -2.34971328
H   -0.79066099  -3.07535603  -3.04396643
H   -1.60838858  -1.54294235  -2.85398171
C   -0.84173451  -2.35738967  -1.01987499
N   -0.38490314  -2.24322710   0.02557399
C    0.92130021   3.26072635   1.71079618
H    0.83147748   3.52081361   2.74481101
H    0.03220003   3.55152286   1.19133747
H    1.76347953   3.76713588   1.28749668
C    1.11810911   1.73901164   1.57945463
N    1.26464229   0.60602587   1.48166487
Na   1.54296170  -1.69519758   1.67042049
