13
Energy:   -175.21212118
C   -2.97531072  -2.67546741   1.12734618
H   -3.73148196  -2.27913317   0.48234664
H   -3.43594117  -3.22693671   1.92018934
H   -2.33334674  -3.32360570   0.56815203
C   -2.14797265  -1.51935220   1.71938447
N   -1.53198184  -0.65857188   2.16018389
C    2.83474780   2.33013652  -2.10355355
H    2.48687856   1.66751983  -2.86829291
H    3.89016286   2.20689070  -1.97782124
H    2.62468855   3.34092405  -2.38477014
C    2.11873775   2.00641206  -0.77911703
N    1.58563573   1.76538449   0.20698616
Na   0.61518383   0.36579942   1.92896615
