13
Energy:   -174.32589403
C    1.21008153   1.30618733  -1.94747183
H    0.46708764   1.79468321  -1.35229789
H    0.78508811   1.02477858  -2.88826342
H    2.03048161   1.97312009  -2.11192090
C    1.71034821   0.04824979  -1.21335577
N    2.08281949  -0.88834189  -0.66677299
C   -2.18387140  -0.16798853   1.60002124
H   -2.32322490   0.09248707   2.62843421
H   -3.02809731  -0.72850274   1.25650193
H   -2.08621241   0.72348053   1.01637346
C   -0.90880595  -1.01920776   1.45430257
N    0.04053823  -1.65297917   1.34580840
Na   2.20376715  -2.50596650   0.87864098
