13
Energy:   -179.93046984
C   -3.97403162  -1.16435492  -0.34337813
H   -3.67497804  -1.61211281   0.58127317
H   -4.08890328  -1.92486899  -1.08723425
H   -4.90485392  -0.65429595  -0.20806817
C   -2.89942567  -0.15944836  -0.79833401
N   -2.09933269   0.58875026  -1.13706934
C    4.03864856   0.39383103   1.03428248
H    4.72839180  -0.26774976   0.55317406
H    3.66564191  -0.06623691   1.92540683
H    4.53659161   1.30688624   1.28584159
C    2.86611680   0.69405028   0.08210725
N    1.99311360   0.91757717  -0.62683048
Na  -0.18697907   1.94797272  -1.26117099
