13
Energy:   -188.58718586
C    4.27345162   2.64370229  -0.21591038
H    4.10307311   3.62882453   0.16541037
H    4.60299861   2.70658972  -1.23195321
H    5.02339496   2.15809969   0.37288007
C    2.96500787   1.83425509  -0.14980304
N    1.99081202   1.23158485  -0.10058312
C   -4.27345131  -2.64370279   0.21591055
H   -4.33684913  -3.14266001   1.16032708
H   -4.28496237  -3.36798034  -0.57161000
H   -5.10765377  -1.98287581   0.10494641
C   -2.96500822  -1.83425454   0.14980291
N   -1.99081286  -1.23158353   0.10058277
Na  -0.00000053   0.00000084  -0.00000042
