13
Energy:   -178.87754497
C    1.30339856   1.34963068  -4.70488846
H    1.14315780   0.63122817  -5.48149706
H    2.34428360   1.59190939  -4.65236742
H    0.74132676   2.23514334  -4.91664708
C    0.84489154   0.76041570  -3.35796715
N    0.50351222   0.32171837  -2.35512301
C   -1.06800295  -1.01603606   4.82743601
H   -1.97543482  -0.57700172   5.18620672
H   -0.23297525  -0.44716189   5.17958657
H   -0.99174545  -2.02110098   5.18650201
C   -1.07354886  -1.02012871   3.28745143
N   -1.07767804  -1.02317588   2.14086291
Na  -0.46118512  -0.78544041  -0.33955548
