13
Energy:   -182.00976958
C    1.45344068   4.37074600   1.98374324
H    1.99829599   4.82662324   1.18361273
H    2.11822845   4.16611997   2.79681427
H    0.68113264   5.03419246   2.31279974
C    0.82400403   3.05426279   1.49152230
N    0.35535983   2.07408120   1.12504143
C   -1.14194667  -4.34261087  -2.19586720
H   -1.58685404  -4.02490248  -3.11566010
H   -1.72735909  -5.13050300  -1.76993599
H   -0.14976328  -4.69670540  -2.38318585
C   -1.08705867  -3.15626423  -1.21547495
N   -1.04619205  -2.27297524  -0.48552835
Na  -0.69128782   0.09793556   0.27211874
