13
Energy:   -177.76699723
C    3.56430008  -1.30227017   1.12344315
H    4.43006841  -1.92033515   1.00793964
H    2.99394677  -1.64066085   1.96313829
H    3.86827773  -0.28896444   1.28378089
C    2.70162118  -1.38409191  -0.14962021
N    2.05931752  -1.44501191  -1.09747375
C   -3.69956888   1.78058791  -0.26915945
H   -4.57780871   1.18366745  -0.40061641
H   -3.70736261   2.58641142  -0.97306770
H   -3.68236673   2.17565929   0.72508488
C   -2.44909888   0.91131469  -0.49782703
N   -1.51806713   0.26410127  -0.66808043
Na   0.01674125  -0.92040760  -2.04754186
