13
Energy:   -176.36638922
C    1.79651504   1.92362489  -2.86518182
H    2.25835575   0.98442269  -3.08767356
H    2.49633540   2.55373892  -2.35713963
H    1.48840757   2.39409772  -3.77546979
C    0.56803374   1.69135121  -1.96602520
N   -0.34662644   1.51841290  -1.29656223
C   -0.87531691  -2.44817797   2.89728350
H   -0.28416445  -3.14607461   2.34196447
H   -1.81396060  -2.89625609   3.14842710
H   -0.35831895  -2.17690791   3.79395777
C   -1.11928032  -1.18925484   2.04452656
N   -1.30092217  -0.25192935   1.40961025
Na  -2.50905766   1.04295243  -0.28771741
