60
Energy:   -251.56609826
C    0.05831996   1.01577083   4.90886733
H   -0.34082491   0.07105832   5.21399326
H    0.07012169   1.68450696   5.74406300
H    1.05575088   0.88103053   4.54572039
C   -0.81975195   1.60689687   3.79031482
N   -1.47351640   2.04701708   2.95750163
C    0.37012932  -5.22997393   2.08789444
H    0.29604849  -4.89173115   3.10031927
H    1.29293607  -4.89124085   1.66529925
H    0.33902306  -6.29929549   2.06591926
C   -0.80663387  -4.66528842   1.27060706
N   -1.68278756  -4.24485439   0.66209946
C    0.73576713   3.22195145  -4.30421256
H    0.60902927   2.21243911  -4.63545649
H    1.05404278   3.82950759  -5.12547698
H   -0.19391566   3.59250293  -3.92568833
C    1.79814604   3.26715084  -3.19025203
N    2.58913544   3.30080385  -2.36085779
C   -0.36717980  -2.97478198  -2.20184279
H   -0.81605541  -3.92990082  -2.37836153
H   -0.09095820  -2.53236396  -3.13611632
H   -1.06629433  -2.33954014  -1.69924378
C    0.88751746  -3.15114975  -1.32649760
N    1.82169660  -3.28246358  -0.67476332
C   -1.70971939   0.48186266  -3.28320937
H   -1.44517207  -0.36990972  -3.87430894
H   -0.85597615   0.80952143  -2.72763642
H   -2.04261259   1.27132336  -3.92417193
C   -2.84010649   0.09996050  -2.30956891
N   -3.68173107  -0.18438301  -1.58464933
C    2.59659574  -1.54466400   2.05186768
H    2.29017640  -1.01157614   1.17618240
H    3.07116554  -2.45963336   1.76461575
H    3.28494636  -0.94613027   2.61117965
C    1.36387224  -1.85648181   2.92063833
N    0.44605357  -2.08864434   3.56747757
C   -3.39533812   2.80128263   0.29292911
H   -3.25207788   1.77162557   0.54627280
H   -4.40637841   2.95365008  -0.02247662
H   -3.19305507   3.41066952   1.14886619
C   -2.43751820   3.18686299  -0.84965953
N   -1.72437774   3.47394508  -1.70036871
C    0.90784070   3.14596560   0.54071740
H    0.62489852   2.51851824  -0.27852231
H    1.48257309   3.97145669   0.17582530
H    0.02928386   3.51159196   1.02995593
C    1.75234753   2.33470061   1.54084605
N    2.38112125   1.73067694   2.28548730
C    3.05200409   0.05133915  -1.45360492
H    2.46626602   0.49043061  -0.67321414
H    3.86726287   0.70056167  -1.69601438
H    3.43345749  -0.89283505  -1.12508173
C    2.17265655  -0.15611478  -2.70072592
N    1.51794234  -0.31057365  -3.62926418
C   -2.25160179  -1.04204509   1.47245286
H   -1.89382560  -1.71448399   2.22393294
H   -2.93982046  -1.55480211   0.83344238
H   -2.74603403  -0.21589438   1.93926207
C   -1.06439668  -0.52528749   0.63872291
N   -0.18046851  -0.14053797   0.01797307
