60
Energy:   -251.71122964
C    2.75774157   0.21858098  -3.45805778
H    2.37388550   1.13880473  -3.84631408
H    2.04852344  -0.56414109  -3.62909842
H    3.67763561  -0.01989775  -3.94981173
C    3.00699200   0.36391272  -1.94532749
N    3.19257027   0.47211880  -0.81903104
C   -0.00273499  -0.14718593   4.77461309
H    0.59674270  -0.96135292   4.42438633
H   -1.03816175  -0.39693378   4.67255163
H    0.21877934   0.04174784   5.80424143
C    0.30589125   1.11213496   3.94367342
N    0.53567752   2.04975660   3.32500107
C    4.02618358   1.49755055   2.32234332
H    4.51677635   1.44605496   1.37283445
H    4.74111122   1.74043875   3.08048769
H    3.26836041   2.25231497   2.29178492
C    3.38183304   0.13578931   2.64174700
N    2.90208478  -0.87810383   2.87955756
C    2.54993110  -3.03079610   0.09229438
H    1.60175451  -3.32356422   0.49247954
H    2.76552033  -2.02460859   0.38556398
H    3.31161978  -3.68239751   0.46665390
C    2.50804687  -3.11976797  -1.44456271
N    2.47686215  -3.18601157  -2.58882268
C   -3.69198012  -1.46123418   0.15722771
H   -3.40481096  -0.47192399   0.44653622
H   -2.98870313  -2.16583370   0.54945222
H   -4.66625218  -1.67710449   0.54335340
C   -3.71525877  -1.56031299  -1.37940546
N   -3.73259078  -1.63408167  -2.52349870
C   -0.93251883  -3.72023419  -3.13396954
H   -0.32815197  -2.89283304  -3.44226844
H   -1.92793280  -3.59269950  -3.50516360
H   -0.52023998  -4.62765824  -3.52320834
C   -0.96307672  -3.78861580  -1.59579200
N   -0.98582846  -3.83952901  -0.45054889
C   -2.36898836   1.48821441  -3.42112310
H   -3.29657407   1.71793861  -3.90248754
H   -2.12213953   0.46152363  -3.59395479
H   -1.59648388   2.11262598  -3.81892469
C   -2.50106536   1.73656508  -1.90703010
N   -2.59940268   1.92147344  -0.77971904
C   -2.80393127   3.23356338   2.36165218
H   -3.26543324   3.41828463   1.41413217
H   -1.77849829   3.53683873   2.32409751
H   -3.31286226   3.78998987   3.12078188
C   -2.88309033   1.73037220   2.68684463
N   -2.94202785   0.61117805   2.92896519
C   -0.14388876  -0.55620737   0.83228909
H   -0.38699546  -1.53347526   1.19387831
H   -0.86938593   0.14590413   1.18667927
H    0.82620558  -0.27603610   1.18629489
C   -0.14603396  -0.56342504  -0.70769250
N   -0.14763115  -0.56879893  -1.85427880
C    0.74278632   2.95634248   0.07842444
H    1.46536813   2.23752275   0.40411433
H   -0.22918771   2.66342426   0.41660264
H    0.98701702   3.91620675   0.48328373
C    0.75021506   3.03100193  -1.45974680
N    0.75574610   3.08658929  -2.60498521
