60
Energy:   -251.70152111
C    2.85324250   1.35707183  -3.65561587
H    2.28295580   0.46401919  -3.80437827
H    3.80179649   1.25953956  -4.14103515
H    2.32498648   2.19063102  -4.06916604
C    3.06911453   1.58307188  -2.14766254
N    3.22984106   1.75133918  -1.02492274
C    0.08916639  -3.49020712   2.98855036
H   -0.46570393  -4.19784281   2.40866172
H    0.28012135  -3.89654315   3.95980023
H    1.01810801  -3.27977973   2.50101894
C   -0.72405049  -2.18977641   3.12696377
N   -1.32952742  -1.22154663   3.23001885
C    1.41494877   1.08509007   4.48871781
H    1.56727990   1.96928381   3.90571110
H    1.87390438   1.20666363   5.44761234
H    0.36571586   0.91699553   4.61423123
C    2.04526501  -0.12053468   3.76707357
N    2.51456410  -1.01817710   3.22977662
C    3.52982830  -1.74161840   0.08368967
H    2.71732337  -2.23533210   0.57458957
H    3.53247179  -0.70588983   0.35231288
H    4.45361575  -2.19032746   0.38398287
C    3.36585969  -1.87590924  -1.44165628
N    3.24377761  -1.97589487  -2.57734567
C   -2.98136987  -1.56016471   0.20702671
H   -2.55538331  -0.60915285   0.44995071
H   -2.35140788  -2.33946415   0.58217917
H   -3.95132951  -1.64053632   0.65156894
C   -3.10512983  -1.69162746  -1.32235258
N   -3.19727476  -1.78950745  -2.46104498
C    0.04727294  -3.25836826  -3.03439411
H    0.55346842  -4.12324998  -3.40942202
H    0.53018364  -2.37612998  -3.39956801
H   -0.97069708  -3.27007684  -3.36378601
C    0.08881539  -3.26649714  -1.49497600
N    0.11974562  -3.27254947  -0.34880923
C   -2.61946025   1.66281203  -3.36772033
H   -3.10424034   0.76200827  -3.68147347
H   -1.59119392   1.63573257  -3.66239668
H   -3.09917049   2.50349585  -3.82382108
C   -2.71125019   1.78831420  -1.83558985
N   -2.77959197   1.88175628  -0.69484906
C   -3.39344608   1.67391533   2.70672704
H   -3.32163513   0.60658626   2.73022235
H   -3.89223518   1.97818370   1.81032910
H   -3.94853559   2.01283189   3.55638008
C   -1.98000023   2.28436691   2.74018915
N   -0.92762556   2.73887587   2.76510320
C    0.44639629   0.22483989   0.59798992
H    1.24008342   0.91344311   0.79994667
H    0.70059060  -0.73751353   0.99062237
H   -0.45367703   0.57238651   1.06056796
C    0.23366272   0.11862803  -0.92354334
N    0.07527291   0.03954847  -2.05639402
C    0.32694754   3.84116016  -0.30315554
H   -0.49906422   3.30185785   0.11128116
H    0.27610532   4.86425906   0.00600914
H    1.24350466   3.40962421   0.04122630
C    0.26980457   3.76594378  -1.84025579
N    0.22725904   3.70994176  -2.98469680
