60
Energy:   -251.66271662
C    3.67616348   1.87725428  -1.29913928
H    2.72026013   2.24956903  -0.99495069
H    3.80039310   2.03041289  -2.35080869
H    4.44661929   2.39758556  -0.76946741
C    3.76427167   0.37207469  -0.98565667
N    3.82987222  -0.74859993  -0.75225462
C   -0.87786168  -2.27861705   3.65482424
H   -1.48322915  -1.40503819   3.77847856
H    0.00278772  -2.19032605   4.25612318
H   -1.43181335  -3.14230613   3.95826752
C   -0.47678489  -2.41992423   2.17469935
N   -0.17816499  -2.52513385   1.07267909
C   -0.95495097   3.68317927   1.27607131
H   -1.50777205   4.47604536   0.81710245
H   -1.11675270   3.70121144   2.33361286
H   -1.28298405   2.74444139   0.88102121
C    0.54569676   3.86717310   0.98315038
N    1.66299720   4.00416487   0.76505744
C    0.59445851   4.12789274  -2.59644201
H    0.30831501   4.87692030  -3.30494733
H    1.48353188   4.43847522  -2.08851864
H   -0.19303129   3.99028583  -1.88522949
C    0.86008730   2.80089509  -3.33136962
N    1.05786002   1.81288502  -3.87855663
C    2.16468989   0.60360317   2.24723627
H    2.84280408   0.28582576   3.01148677
H    2.53298546   1.50009969   1.79385842
H    2.07941285  -0.16240392   1.50503680
C    0.78137478   0.87315836   2.86802554
N   -0.24856619   1.07385444   3.33023137
C   -2.88245386   0.13032437   1.00569613
H   -1.85932858   0.25233968   1.29418722
H   -3.40470216  -0.41344281   1.76495436
H   -3.33484135   1.09187440   0.88053148
C   -2.95224260  -0.64658284  -0.32213846
N   -3.00420349  -1.22502558  -1.31077168
C    0.53441004  -1.33596730  -2.00332799
H    0.75011097  -1.07733787  -3.01894805
H   -0.36600571  -1.91279810  -1.96568772
H    1.34305038  -1.91044710  -1.60211376
C    0.35604964  -0.05117144  -1.17321525
N    0.22325221   0.90541748  -0.55515858
C   -2.98422995  -4.44114101  -0.24504775
H   -3.59061515  -4.09190564  -1.05451165
H   -3.08274309  -5.50302797  -0.15792520
H   -1.96070547  -4.19211489  -0.43288469
C   -3.44281420  -3.77386575   1.06493096
N   -3.78425103  -3.27704899   2.04026965
C   -2.41080939   1.11034599  -3.63863927
H   -2.38023234   1.65197817  -4.56091894
H   -3.24318281   0.43805199  -3.64726296
H   -1.50428639   0.55412614  -3.52144448
C   -2.56153774   2.09894385  -2.46750511
N   -2.67376184   2.83499990  -1.59554249
C    3.23481078  -3.55023776   0.98038275
H    2.48245348  -3.21717710   0.29632920
H    3.22998805  -4.61937613   1.02303236
H    4.19383505  -3.21083929   0.64875009
C    2.94430546  -2.97931519   2.38083056
N    2.72801104  -2.55423738   3.42352761
