60
Energy:   -251.72652360
C   -0.53198792  -1.35107879   3.17791108
H   -0.51865147  -1.75146665   2.18573576
H   -1.43743102  -1.64247151   3.66797452
H    0.30687574  -1.72700126   3.72553244
C   -0.45535768   0.18561818   3.11241137
N   -0.39830298   1.32975893   3.06364386
C   -3.27713766  -0.98487664   0.35854337
H   -3.97608175  -1.31125284   1.10006607
H   -2.28768163  -1.26687492   0.65240190
H   -3.51401396  -1.44076290  -0.58004942
C   -3.35433301   0.54686599   0.21924011
N   -3.41180846   1.68731800   0.11552250
C   -0.05764392   2.28370454  -0.39413611
H    0.83895212   2.72589639  -0.77555726
H   -0.27477219   2.69288432   0.57039814
H   -0.86890013   2.49092836  -1.06033484
C    0.13203324   0.76011573  -0.27455470
N    0.27325651  -0.37426539  -0.18552091
C    2.22782004  -3.10214094   0.96514838
H    1.69495726  -4.00614550   1.17427320
H    1.64134267  -2.26257905   1.27511483
H    3.15638904  -3.10433571   1.49680043
C    2.50238840  -3.00623269  -0.54713923
N    2.70681702  -2.93482463  -1.67310610
C   -3.66162471   2.63534177   3.50050042
H   -2.63456760   2.92427088   3.58157964
H   -4.22254704   3.08619268   4.29233291
H   -4.05027695   2.96048551   2.55809388
C   -3.77314187   1.10264487   3.60052119
N   -3.85617147  -0.03851763   3.67499120
C   -0.76839089  -3.15887994  -2.14094087
H   -0.36183505  -2.17054389  -2.19389718
H   -1.71211080  -3.18380176  -2.64459823
H   -0.09585044  -3.84676758  -2.60934136
C   -0.96323205  -3.55543298  -0.66568407
N   -1.10830015  -3.85068474   0.43271167
C    5.03403398  -0.52914774  -0.72713535
H    4.93342890  -1.22990195  -1.52945844
H    4.80581851  -1.01284602   0.19960774
H    6.03816606  -0.16057923  -0.69929443
C    4.06208848   0.64511739  -0.94627766
N    3.33843088   1.51941115  -1.10943907
C    1.54125715  -0.24655361  -3.61081603
H    2.47764148  -0.26031182  -4.12840204
H    0.87979343  -0.96314568  -4.05111211
H    1.69908671  -0.49216866  -2.58141709
C    0.91841928   1.15810942  -3.71374700
N    0.45468818   2.20394488  -3.79038379
C   -2.99440901   2.27284248  -3.38262508
H   -3.90573679   2.30783129  -3.94222998
H   -2.22523343   2.78588309  -3.92119481
H   -3.14045064   2.74445679  -2.43333541
C   -2.57962460   0.80531514  -3.16834165
N   -2.27079875  -0.28732567  -3.00879790
C    2.75578340   2.41865731   2.27045679
H    3.64466615   2.93575507   2.56608755
H    1.95230707   2.68839204   2.92357858
H    2.50427398   2.68736954   1.26574995
C    2.99484795   0.89945928   2.35098930
N    3.17284238  -0.23165270   2.41094941
