60
Energy:   -252.12347878
C    2.08159358   3.72198162  -0.07731888
H    2.22742685   3.77574358  -1.13597014
H    2.39303804   4.64139732   0.37276578
H    1.04557791   3.55537458   0.13199600
C    2.91454507   2.56112078   0.49730616
N    3.53471532   1.69680712   0.92514061
C   -2.23377463   2.19683932   2.92674651
H   -2.58310063   1.88721662   1.96393536
H   -2.85996856   2.98095179   3.29815988
H   -2.26397273   1.36660925   3.60106483
C   -0.78628991   2.70884034   2.80740272
N    0.29142826   3.09004838   2.71854584
C   -3.87516470  -0.11504056  -0.89117428
H   -3.86107520   0.44399486  -1.80341387
H   -3.64283248   0.53304076  -0.07208245
H   -4.84749027  -0.53771985  -0.74686805
C   -2.83040393  -1.24404611  -0.96480439
N   -2.05253204  -2.08464206  -1.01962535
C    3.76483757  -0.73544441  -1.57287616
H    3.35355000  -1.43816275  -0.87866463
H    4.55392719  -0.18807860  -1.10104215
H    4.15184613  -1.25820183  -2.42249263
C    2.66408006   0.24052874  -2.02829829
N    1.84451606   0.96718511  -2.36738077
C   -0.78979555   3.34522993  -3.00796291
H   -0.00114109   2.69802797  -3.33053686
H   -0.42215625   4.34758945  -2.93714048
H   -1.59254258   3.30884165  -3.71448411
C   -1.29863947   2.88643962  -1.62876412
N   -1.67749691   2.54484938  -0.60188793
C    0.11088190   0.04681912   0.55369045
H   -0.07292349   0.06867485  -0.50017770
H    0.65833183   0.92094797   0.83846479
H   -0.82158220   0.02341852   1.07796347
C    0.92955834  -1.20905174   0.90605002
N    1.53910015  -2.14410469   1.16839774
C   -1.61230191  -3.05748614   2.62709322
H   -1.26376078  -3.35959258   1.66161357
H   -2.12128680  -3.87453139   3.09428754
H   -0.77938064  -2.76385008   3.23117857
C   -2.58016855  -1.86935860   2.47482002
N   -3.30078926  -0.98474365   2.36144570
C   -0.30114939  -1.16721850  -3.89616127
H   -0.01330830  -1.27247130  -2.87099322
H    0.52993710  -0.80518786  -4.46460489
H   -0.60864808  -2.11762278  -4.27966531
C   -1.46900251  -0.16891315  -4.00154408
N   -2.33852224   0.57437055  -4.08000636
C    0.41767840  -4.71591991  -0.77389426
H   -0.57942286  -4.32887737  -0.74410618
H    0.86018909  -4.63667754   0.19708670
H    0.39271534  -5.74333547  -1.07170832
C    1.25180388  -3.90830982  -1.78562575
N    1.87284821  -3.30700739  -2.53890584
C    2.51312819   0.47862290   3.91880800
H    2.98207249  -0.09209134   3.14467837
H    3.04662512   0.34142319   4.83611730
H    2.52159189   1.51501050   3.65286026
C    1.05817819   0.00586553   4.09550255
N   -0.02509822  -0.34612382   4.22705967
