60
Energy:   -251.98901830
C    2.74078306   0.46556036  -3.08088021
H    2.62915167  -0.35522270  -2.40356655
H    3.50292798   0.23661868  -3.79615633
H    1.81485106   0.63724458  -3.58888961
C    3.13718048   1.72928456  -2.29508747
N    3.43231637   2.67018466  -1.71002906
C   -2.38760042  -3.38264725   1.93038344
H   -2.82419174  -2.96181898   1.04879863
H   -3.12836362  -3.94115281   2.46352555
H   -1.58200396  -4.03075640   1.65494206
C   -1.85254578  -2.25170016   2.82831173
N   -1.45417328  -1.40965864   3.49686015
C    3.79162110   1.79085782   1.58575351
H    3.22800870   2.55695571   1.09551350
H    4.83520096   2.01736383   1.51840968
H    3.50351987   1.73935184   2.61494927
C    3.51547667   0.43637792   0.90698370
N    3.30987459  -0.57209393   0.40160873
C    1.64050377  -3.77160315  -1.34404139
H    1.93143202  -3.63424132  -2.36452788
H    1.98212227  -4.72585873  -1.00112424
H    2.07427291  -3.00024961  -0.74257888
C    0.10580328  -3.70605915  -1.23450427
N   -1.03685100  -3.65725867  -1.15294890
C    0.04399444  -0.43640610  -0.11568385
H    0.38041968  -1.20538137   0.54793899
H    0.49307671   0.49469562   0.16049328
H    0.32323766  -0.68347749  -1.11861857
C   -1.48845337  -0.31414866  -0.02481685
N   -2.62943043  -0.22312244   0.04283776
C   -2.23658360  -1.04486132  -3.41389251
H   -2.81649831  -1.17481772  -4.30367363
H   -2.30155980  -0.02670685  -3.09134228
H   -2.61344601  -1.68714826  -2.64555580
C   -0.76601997  -1.39879016  -3.70333508
N    0.32888149  -1.66230627  -3.91883823
C   -4.08814465   2.35190451  -1.52474266
H   -3.38645975   2.10309449  -2.29326856
H   -4.85822390   2.97298476  -1.93234094
H   -4.52235442   1.45527963  -1.13432647
C   -3.36476916   3.10658455  -0.39390849
N   -2.82618323   3.66847815   0.44804896
C   -2.04398006   1.85130315   3.14216687
H   -2.15017991   1.37261321   4.09320721
H   -2.60576553   1.31335204   2.40738474
H   -2.40875221   2.85521305   3.20545408
C   -0.55757867   1.86962649   2.73982975
N    0.54911473   1.88326905   2.44027147
C    1.96147908  -1.50517026   3.52848955
H    3.02457700  -1.38474454   3.51363584
H    1.63569010  -1.67423250   4.53356596
H    1.49689240  -0.61996227   3.14709066
C    1.56896220  -2.70920997   2.65223680
N    1.27671554  -3.60567226   1.99982680
C    0.47808619   3.88576184  -0.63794217
H   -0.30886337   4.51051118  -0.27011225
H    1.20022988   4.48632017  -1.15052121
H    0.94846874   3.38459544   0.18210148
C   -0.10564211   2.84353787  -1.60986320
N   -0.54025435   2.06755476  -2.33350258
