60
Energy:   -251.58495372
C    3.07223243   1.09371166  -2.98750876
H    3.95264280   1.45311498  -3.47802586
H    2.25697788   1.75758565  -3.18633139
H    2.83392548   0.11673187  -3.35304861
C    3.32144107   1.02707773  -1.46926801
N    3.50698823   0.97746573  -0.33886876
C    0.11945788  -3.44236765   3.10222171
H    0.50306936  -3.72352698   2.14373757
H   -0.33595302  -4.29163647   3.56724050
H    0.92001295  -3.08606479   3.71627296
C   -0.92940736  -2.32820395   2.92866783
N   -1.71033521  -1.49865843   2.79944908
C    2.78824555   1.86598013   2.81748135
H    2.30737677   2.24231725   1.93882568
H    3.84770403   1.98072755   2.72114935
H    2.44668925   2.41137062   3.67234250
C    2.44709405   0.37422821   2.99037402
N    2.19309125  -0.73644890   3.11910047
C    3.12728402  -2.47841923   0.36599877
H    3.62225234  -1.59858658   0.72068322
H    3.64456484  -3.34574674   0.71964074
H    2.12034241  -2.49149502   0.72765705
C    3.11964514  -2.47759791  -1.17398206
N    3.11395764  -2.47698641  -2.32056779
C   -3.31494340  -1.57838786  -0.17079396
H   -2.34183589  -1.89371161   0.14310552
H   -4.04970907  -2.25673611   0.20981367
H   -3.50932027  -0.59510818   0.20374281
C   -3.37822022  -1.56343066  -1.70942072
N   -3.42533268  -1.55229435  -2.85499829
C   -0.23399200  -3.50256048  -3.14352685
H    0.62197017  -2.96603122  -3.49618149
H   -1.12426439  -3.02706838  -3.49880340
H   -0.19827690  -4.50881248  -3.50557719
C   -0.23601398  -3.51086408  -1.60355056
N   -0.23751943  -3.51704649  -0.45696822
C   -2.32969497   1.93648714  -3.20735861
H   -2.46547537   0.93842463  -3.56837812
H   -1.31817543   2.24211928  -3.37563310
H   -2.99280267   2.59676007  -3.72622943
C   -2.63572584   1.98276991  -1.69878212
N   -2.86357974   2.01722953  -0.57557836
C   -2.98018265   1.54233255   2.93012270
H   -3.17461663   1.02734108   2.01258284
H   -3.67585208   2.34765608   3.04146518
H   -3.08677653   0.86302080   3.74992290
C   -1.54568107   2.10217353   2.91054476
N   -0.47762943   2.51900058   2.89596810
C    0.10673887   0.15856901   0.30153451
H   -0.88550538   0.32519480   0.66566000
H    0.71091095   1.01749377   0.50677450
H    0.52623198  -0.69709050   0.78812617
C    0.06151615  -0.08594753  -1.21825711
N    0.02784577  -0.26800121  -2.34981105
C   -0.54901499   4.71129376   0.38501248
H    0.06637891   4.73199237   1.26009082
H   -1.49113452   4.26282430   0.62204630
H   -0.70725663   5.71050832   0.03654590
C    0.14897657   3.88884055  -0.71406827
N    0.66866302   3.27648675  -1.53238384
