60
Energy:   -251.72256182
C    2.46654226   4.10995864  -1.78067097
H    2.96160985   4.80900051  -2.42187978
H    2.75070811   3.11451851  -2.05131431
H    2.74665805   4.29718791  -0.76510244
C    0.94186858   4.26708064  -1.92994531
N   -0.19332028   4.38406512  -2.04108683
C   -1.86466710   2.80678896   0.38953806
H   -1.00527452   2.39908492  -0.10048437
H   -1.79095104   3.87405673   0.40965100
H   -2.74787362   2.52023294  -0.14218648
C   -1.93648898   2.26993572   1.83114488
N   -1.98996364   1.87022409   2.90448669
C    1.35637571   2.64312551   4.02157092
H    2.09385475   1.92570372   4.31539199
H    0.38178287   2.27006046   4.25798233
H    1.52348850   3.56125002   4.54503992
C    1.45712504   2.89119888   2.50502578
N    1.53213749   3.07590077   1.37588898
C   -1.34757640   1.11194658  -2.95461077
H   -1.65899478   2.13263437  -2.87641093
H   -1.65726576   0.57666010  -2.08142123
H   -1.79225474   0.66875664  -3.82106501
C    0.18636155   1.05119366  -3.07685410
N    1.32844809   1.00596035  -3.16786982
C   -1.92410992  -3.06087277  -1.47979119
H   -2.97690089  -3.08587575  -1.29030187
H   -1.44951320  -2.41419775  -0.77164681
H   -1.52150295  -4.04790397  -1.38718376
C   -1.67139502  -2.53502778  -2.90500073
N   -1.48323730  -2.14351227  -3.96613401
C    2.31118624   0.14304389  -0.05137805
H    2.83734698   0.10048492   0.87934414
H    2.43454462   1.11261657  -0.48682105
H    2.70180351  -0.59882636  -0.71616808
C    0.81416473  -0.12342479   0.19259128
N   -0.30043583  -0.32182284   0.37423754
C   -3.57203255  -1.16698986   1.52481118
H   -2.62188075  -1.65869939   1.50654955
H   -4.34532160  -1.89075565   1.67675260
H   -3.58929807  -0.45383390   2.32231326
C   -3.80173363  -0.44402417   0.18460298
N   -3.97275653   0.09425665  -0.81324295
C    2.00317818  -2.02049460  -4.44239382
H    1.06275030  -1.72021704  -4.85510313
H    2.40748243  -2.82320170  -5.02299564
H    2.68047914  -1.19230116  -4.45846000
C    1.79998800  -2.48935194  -2.98964244
N    1.64870367  -2.83843754  -1.90800301
C    1.71539237  -3.70695729   1.30155681
H    2.03085838  -2.71396445   1.05794523
H    1.91943851  -4.35827225   0.47751004
H    2.24634095  -4.04796733   2.16567766
C    0.20351147  -3.70791847   1.59449917
N   -0.92215258  -3.70863412   1.81260807
C   -0.57992333  -1.00821059   3.96893281
H   -1.15842370  -0.75643998   3.10472851
H   -0.81997260  -0.33688462   4.76680303
H   -0.80279955  -2.01124371   4.26751251
C    0.91895409  -0.89316151   3.63467212
N    2.03493645  -0.80750224   3.38579984
