60
Energy:   -251.85887263
C    0.93444900   3.81433356  -0.30881862
H    0.81905777   4.46469293  -1.15061298
H    1.35617849   4.36068003   0.50882976
H   -0.02135268   3.42694946  -0.02372952
C    1.86919251   2.64951320  -0.68438231
N    2.56515155   1.78225149  -0.96400656
C    0.70992766  -3.47340701   2.89483710
H    1.69214298  -3.34064606   3.29798443
H    0.76307778  -3.49681290   1.82641475
H    0.29941114  -4.39479594   3.25179330
C   -0.18938932  -2.30468316   3.33858653
N   -0.85897169  -1.43451513   3.66897815
C    4.04420682   1.32587298   2.34993403
H    5.10046753   1.19070065   2.45453782
H    3.64983755   1.76004744   3.24484436
H    3.84792569   1.97482319   1.52214394
C    3.37407487  -0.03847219   2.10277936
N    2.87513118  -1.05428918   1.91876147
C    3.27741481  -1.52575742  -1.60154986
H    4.10864636  -1.90890507  -2.15576298
H    3.63464829  -0.99758332  -0.74229701
H    2.71272263  -0.85994683  -2.22019199
C    2.37964663  -2.69275872  -1.15019603
N    1.71121742  -3.56164422  -0.81414259
C   -3.92620865  -1.00927161   1.61937148
H   -3.90748003   0.00386597   1.96303067
H   -3.05744160  -1.52268448   1.97511032
H   -4.80446822  -1.49538741   1.98984502
C   -3.93950175  -1.02885833   0.07955342
N   -3.94939907  -1.04344153  -1.06691112
C   -1.60796223  -3.62661967  -2.05916925
H   -0.57530626  -3.62209586  -2.33935019
H   -2.08885396  -2.75678389  -2.45543677
H   -2.07964677  -4.50405226  -2.44971353
C   -1.72321733  -3.62219684  -0.52349458
N   -1.80903000  -3.61890384   0.61988502
C   -3.01111447   1.98411568  -2.38853457
H   -2.93419706   2.95238241  -2.83735907
H   -4.01094807   1.61891615  -2.49744356
H   -2.33164113   1.31259692  -2.87048647
C   -2.66073811   2.08263492  -0.89216217
N   -2.39986699   2.15598697   0.22195510
C   -1.51592179   1.79936273   3.48078351
H   -1.90807751   1.06658422   2.80687718
H   -2.14199988   2.66698118   3.46799551
H   -1.48762104   1.39451446   4.47083201
C   -0.09115565   2.18797356   3.04417949
N    0.96964750   2.47731199   2.71910795
C   -0.08894543  -0.41098685   0.35747774
H   -1.06536556  -0.27252985   0.77260852
H    0.55216189   0.38198849   0.68162372
H    0.30882187  -1.34827955   0.68635866
C   -0.17883335  -0.40255229  -1.17987355
N   -0.24575900  -0.39627237  -2.32450148
C    1.49814718   1.44751530  -4.45427309
H    2.00354910   1.80464989  -5.32715565
H    0.92887245   0.57636093  -4.70310125
H    2.21746482   1.20055720  -3.70161585
C    0.55479489   2.54275651  -3.92311101
N   -0.14757376   3.35821338  -3.52763671
