60
Energy:   -253.18298243
C    2.32831761   1.05325888  -3.33332793
H    2.12762005   1.86509101  -4.00082269
H    2.95118769   0.33431311  -3.82327583
H    2.82757208   1.42290694  -2.46211935
C    1.00214920   0.38755387  -2.92136410
N    0.01475654  -0.10809376  -2.61463830
C   -0.14754415  -3.48126954   2.91798454
H    0.68623903  -3.22880485   2.29672182
H   -0.55129573  -4.42241843   2.60794822
H    0.17402989  -3.54916998   3.93625698
C   -1.22929635  -2.39235131   2.79280764
N   -2.03471004  -1.58160219   2.69960775
C    2.49779472   1.58208185   4.10204682
H    2.57313472   2.15547200   3.20179807
H    3.40743386   1.67061174   4.65848027
H    1.68256640   1.94784460   4.69070589
C    2.25347998   0.10298424   3.74965418
N    2.07157655  -0.99827116   3.48728185
C    3.40464038  -2.13543670   0.52092355
H    2.43225443  -2.33643233   0.91962960
H    3.76139299  -1.20231566   0.90421428
H    4.07593000  -2.91828129   0.80627193
C    3.32453680  -2.06243890  -1.01525831
N    3.26489604  -2.00808871  -2.15901554
C   -2.97149899  -1.48584121  -0.55494746
H   -3.40382981  -2.33315953  -0.06500674
H   -3.45446792  -0.59314825  -0.21621545
H   -1.92755703  -1.43553787  -0.32570119
C   -3.15664793  -1.62354622  -2.07756271
N   -3.29449973  -1.72607386  -3.21121898
C    0.09564399  -3.39854417  -3.15897452
H    1.04989963  -3.06977292  -3.51422908
H   -0.66526929  -2.73621474  -3.51566738
H   -0.09655365  -4.38837241  -3.51702372
C    0.09399641  -3.40037558  -1.61897649
N    0.09276972  -3.40173914  -0.47237795
C   -2.51821415   1.91850856  -3.42043582
H   -3.41790756   2.31515956  -3.84247841
H   -2.40817278   0.89507478  -3.71262288
H   -1.67999134   2.48225515  -3.77324086
C   -2.58811988   2.00923373  -1.88470077
N   -2.64016788   2.07678275  -0.74127622
C   -3.10010074   1.58573841   2.61578088
H   -3.10347226   0.90969388   1.78641208
H   -3.73067829   2.42199935   2.39683185
H   -3.46428084   1.08294289   3.48725584
C   -1.66353828   2.07879711   2.87030286
N   -0.59395224   2.44590173   3.05980604
C    0.27640497   0.15010606   0.63645606
H   -0.51784028   0.70711337   0.18499452
H    0.06453536   0.00471658   1.67514381
H    0.36432296  -0.80082778   0.15386476
C    1.59792444   0.92631932   0.48585971
N    2.58185575   1.50424538   0.37373389
C    0.15691679   4.23336866   0.16840227
H    0.08032333   5.29075258   0.31322244
H    1.00567515   3.86072704   0.70286138
H   -0.73024223   3.75837864   0.53204007
C    0.32242264   3.93148166  -1.33262140
N    0.44564927   3.70671306  -2.45020175
