60
Energy:   -252.22324605
C    1.34587733   2.02477545  -2.62024971
H    1.98140115   1.36162514  -3.16910426
H    1.20346137   2.92616368  -3.17892318
H    0.39904412   1.55502496  -2.45369508
C    1.99890383   2.35798108  -1.26594900
N    2.48511174   2.60606782  -0.25761057
C   -0.62628757  -4.30874561   2.43770922
H    0.34156262  -4.31303336   2.89394141
H   -0.53672387  -4.58767991   1.40859645
H   -1.26156656  -5.00635996   2.94234165
C   -1.23384731  -2.89707188   2.53593569
N   -1.68620316  -1.84601662   2.60906977
C    0.75944507   5.56474156   0.79102968
H    1.02348790   6.59967419   0.85502979
H    1.62163363   4.96362181   0.99149172
H   -0.00272509   5.34601359   1.50946813
C    0.23546811   5.25517951  -0.62361497
N   -0.15465655   5.02469650  -1.67688222
C    1.97274568  -3.67256542  -0.72075373
H    2.87672144  -3.68805933  -1.29301934
H    1.26224799  -3.02724627  -1.19367584
H    1.57118048  -4.66257614  -0.66139657
C    2.27223610  -3.15416669   0.69810787
N    2.49522033  -2.76819527   1.75451483
C   -3.00718427  -1.59438249  -0.68509670
H   -2.50345729  -0.86600177  -0.08457957
H   -3.90276659  -1.90709306  -0.19007803
H   -3.25507398  -1.16510984  -1.63334497
C   -2.08642797  -2.81047069  -0.89708104
N   -1.40088306  -3.71590362  -1.05491301
C    0.41134540  -1.78936464  -3.68256281
H    0.84085568  -1.83146532  -4.66166884
H    0.09275985  -2.76817712  -3.39045242
H    1.14150425  -1.42982578  -2.98794137
C   -0.79918839  -0.83747836  -3.69353825
N   -1.70048582  -0.12875576  -3.70170997
C    0.82087560   0.40272945   2.08316572
H    1.33142712   1.34138963   2.02700178
H    1.43916282  -0.30994144   2.58786385
H   -0.09457937   0.52639362   2.62311801
C    0.51376192  -0.10051106   0.66048157
N    0.28510183  -0.47519650  -0.39877144
C   -3.34418706   0.93673223   3.57428447
H   -2.36035323   1.33009776   3.42517131
H   -3.27743981  -0.02230550   4.04406158
H   -3.90330162   1.60170054   4.19887004
C   -4.05153270   0.79381979   2.21382933
N   -4.57818368   0.68741499   1.20090864
C    4.46993238  -0.07738375   0.44203208
H    5.37158303  -0.60609164   0.67093003
H    3.73140627  -0.29309657   1.18563564
H    4.66660872   0.97430709   0.42923058
C    3.95208718  -0.51962384  -0.93922099
N    3.56652788  -0.84889169  -1.96762669
C   -2.30429911   2.17315880  -1.09190411
H   -2.08333201   2.94832723  -1.79559980
H   -3.36380632   2.03529416  -1.03413825
H   -1.84274977   1.26139535  -1.40901403
C   -1.76171325   2.56817625   0.29415570
N   -1.35773341   2.86228470   1.32614023
