60
Energy:   -253.91204650
C    3.77796055   0.69512433   1.31761898
H    4.04605905   1.48630332   1.98624382
H    2.88042732   0.95674749   0.79715139
H    4.56754389   0.54149828   0.61202967
C    3.54746586  -0.59901937   2.11990588
N    3.37585208  -1.56256818   2.71724494
C    0.03886906  -1.10654439   1.90366635
H   -0.97071782  -1.40939235   2.08783368
H    0.43990172  -0.64826835   2.78347029
H    0.62711122  -1.96294882   1.64785057
C    0.06810333  -0.09766065   0.74052450
N    0.08986956   0.65349915  -0.12548747
C   -2.35083427   1.46357211   3.57150644
H   -2.68829613   2.04348628   4.40500462
H   -1.36315210   1.10081927   3.76591171
H   -3.01190765   0.63559503   3.42205733
C   -2.33521391   2.34269175   2.30718659
N   -2.32358385   2.99723627   1.36584300
C   -3.38735269   0.68949201  -1.13570183
H   -2.42285170   0.61651730  -1.59320890
H   -3.58891111   1.71106528  -0.88940655
H   -4.13255841   0.33282367  -1.81566891
C   -3.41288055  -0.16244651   0.14693182
N   -3.43188720  -0.79675346   1.10191087
C    2.66789387   0.89367931  -2.70470799
H    2.51145041   1.14177086  -3.73372510
H    1.85409958   0.29350336  -2.35481260
H    3.58261478   0.34764556  -2.60454865
C    2.74779675   2.18630033  -1.87143348
N    2.80728808   3.14871545  -1.25102274
C    0.99544258   3.96832451   1.43235513
H    0.66419655   3.55875734   0.50099539
H    1.95329592   4.42646480   1.29997857
H    0.29290442   4.70157120   1.76953241
C    1.10472645   2.84308644   2.47805887
N    1.18609326   2.00529554   3.25663284
C    2.57096869  -4.18726571   0.51589252
H    3.50844218  -4.70305921   0.51505805
H    1.81528843  -4.82017154   0.09962741
H    2.30672198  -3.92927130   1.52013933
C    2.68964029  -2.90531416  -0.32916209
N    2.77799668  -1.95084297  -0.95834366
C   -0.83049234   3.46093048  -2.02804922
H    0.08506925   4.00747615  -1.93897075
H   -1.09643069   3.05288068  -1.07533140
H   -1.60616571   4.11684544  -2.36421211
C   -0.64907408   2.31757068  -3.04363565
N   -0.51399994   1.46628735  -3.79978591
C   -0.14355326  -1.86503255  -2.89959920
H    0.12341072  -1.26496760  -3.74431956
H    0.31412832  -2.82821505  -2.98738379
H    0.19527657  -1.38952895  -2.00294444
C   -1.67416553  -2.02678472  -2.84800166
N   -2.81377594  -2.14721657  -2.80958494
C   -3.43414107  -4.02057053   0.15009172
H   -3.77360387  -3.63750233   1.08973205
H   -3.70451343  -5.05250409   0.06695930
H   -3.88824984  -3.46767426  -0.64551499
C   -1.90285441  -3.88244651   0.06243935
N   -0.76274189  -3.77960690  -0.00282182
