60
Energy:   -251.69172672
C   -4.66905952   2.61652940  -0.25646016
H   -4.41125614   2.22071651  -1.21654857
H   -5.33921531   3.44161016  -0.37906542
H   -5.14330271   1.85555751   0.32741849
C   -3.39302237   3.09393607   0.46146187
N   -2.44295470   3.44938704   0.99598745
C    1.12896410  -2.35081572  -2.33339189
H    0.70009640  -2.35816583  -1.35312731
H    1.99679984  -2.97655920  -2.34772139
H    0.41293239  -2.71783158  -3.03872659
C    1.52772941  -0.91140320  -2.70846231
N    1.82462830   0.16030485  -2.98771929
C    2.88265999   0.85788052   4.62851502
H    2.49596875   1.72732847   4.13919884
H    3.46524277   1.15472216   5.47549875
H    2.07112779   0.24037337   4.95255132
C    3.76872388   0.06804261   3.64736934
N    4.42843873  -0.52002762   2.91686178
C    3.75698718   0.81541669  -0.17940806
H    4.72892588   0.58650532   0.20508503
H    3.85235426   1.26274447  -1.14672500
H    3.18332148  -0.08441623  -0.25755829
C    3.04651322   1.79614883   0.77190221
N    2.51753307   2.52634848   1.48019595
C    2.35878043  -2.93147501   1.56098565
H    1.97575862  -3.88856920   1.27434097
H    3.38635883  -3.02844775   1.84308140
H    2.27752279  -2.25349205   0.73719235
C    1.54804958  -2.39019424   2.75318136
N    0.94442362  -1.98718611   3.64082527
C   -2.36686408  -1.21195749  -1.73243491
H   -1.42712470  -0.72176283  -1.87906129
H   -3.02943513  -0.96004628  -2.53395810
H   -2.21734135  -2.27127704  -1.71283579
C   -2.98098131  -0.75540608  -0.39601400
N   -3.43821950  -0.41548280   0.59901211
C   -2.18715990  -2.85335067   2.57463032
H   -3.24026909  -2.94064602   2.40658048
H   -1.93848451  -1.82836094   2.75478495
H   -1.91162650  -3.44193079   3.42466202
C   -1.42593736  -3.35581513   1.33379604
N   -0.85917257  -3.72992277   0.40993852
C   -0.64699266   1.05148004   2.49670636
H   -0.28309166   2.05768171   2.50257496
H   -0.33669582   0.55475390   3.39218283
H   -1.71571738   1.05901242   2.44503597
C   -0.07916788   0.30737379   1.27380779
N    0.34360348  -0.24664713   0.36330421
C   -0.56349097   1.16197237  -5.50188684
H   -0.30737423   1.22297650  -6.53898996
H    0.26630084   1.48729731  -4.90984940
H   -1.40875556   1.78805913  -5.30581993
C   -0.90983899  -0.29515220  -5.14351409
N   -1.16771084  -1.38004768  -4.87668929
C    0.25874278   2.87267546  -1.26121978
H    0.99649883   2.09784541  -1.27717543
H    0.01944806   3.11648893  -0.24722169
H    0.64226471   3.74056962  -1.75575972
C   -1.01065606   2.38782272  -1.98588826
N   -1.95578119   2.02682781  -2.52543688
