60
Energy:   -252.64330549
C    0.02274328  -4.19485026   1.70892635
H    0.94106264  -3.90162643   1.24458863
H   -0.71377415  -4.38241833   0.95576011
H    0.18107988  -5.08427445   2.28229640
C   -0.46680283  -3.06680758   2.63599934
N   -0.83129215  -2.22692853   3.32624732
C   -3.87756193  -0.76530444   2.02293687
H   -3.26959117  -0.77396887   2.90338941
H   -4.90385375  -0.89403638   2.29689359
H   -3.75821583   0.16954729   1.51627343
C   -3.44726070  -1.91304608   1.09066546
N   -3.12688188  -2.76759190   0.39654702
C    4.47430612   1.59710787   1.55641566
H    3.89270548   2.47721918   1.73542672
H    5.45408089   1.72760286   1.96618579
H    4.00223228   0.75695694   2.02137994
C    4.58066666   1.35177915   0.03980719
N    4.65985692   1.16912076  -1.08937675
C    0.84754585   0.50170534   4.15499971
H    0.68863192  -0.20565455   4.94194858
H    1.47723009   1.29178587   4.50737678
H    1.31712911   0.01395641   3.32645180
C   -0.50586274   1.08464433   3.70771085
N   -1.51353695   1.51866891   3.37468397
C   -1.82567253  -2.36910816  -2.74895321
H   -2.37700514  -1.77486759  -2.05051876
H   -2.44853549  -3.15798283  -3.11585588
H   -1.50805187  -1.75596868  -3.56631248
C   -0.59284276  -2.97144414  -2.04972353
N    0.32505503  -3.41991066  -1.52911525
C   -1.75008934   3.61728548   0.72298303
H   -2.30474678   2.70916169   0.83508347
H   -2.37699456   4.45019440   0.96412960
H   -0.90649193   3.60351667   1.38105059
C   -1.26367120   3.74535566  -0.73255653
N   -0.90151078   3.84070973  -1.81627189
C    3.23973794  -1.91968039  -1.32510628
H    4.22799783  -1.57445745  -1.54660953
H    2.52811178  -1.34265630  -1.87785440
H    3.15241770  -2.95050862  -1.59835968
C    2.96726757  -1.76340436   0.18252023
N    2.76440099  -1.64704975   1.30501670
C    2.00760736   2.44004298  -2.79914613
H    1.57050266   3.25156493  -3.34253529
H    2.98030438   2.23027758  -3.19253917
H    2.09045487   2.70613247  -1.76607702
C    1.11751475   1.19099120  -2.93772751
N    0.45480034   0.26101538  -3.04090764
C   -2.72254478   1.50096046  -3.70556315
H   -2.06868431   0.76096825  -4.11760464
H   -2.24779320   2.45899551  -3.74653729
H   -3.63089114   1.52858162  -4.27040211
C   -3.03956329   1.14738733  -2.24061083
N   -3.27559798   0.88413607  -1.14988724
C   -0.37989822  -0.26496197   0.30070431
H    0.16038226  -1.18418211   0.39032310
H   -0.81111353  -0.19849355  -0.67629845
H   -1.15648842  -0.23453682   1.03615048
C    0.58084053   0.91857566   0.51938154
N    1.29615419   1.79977322   0.68219668
