60
Energy:   -252.41383760
C    0.34667365  -1.31655856  -2.68012977
H    0.80663204  -0.69087147  -3.41623719
H   -0.66842386  -1.50826842  -2.95891906
H    0.87964310  -2.24211171  -2.61536851
C    0.37858147  -0.60905545  -1.31264258
N    0.40233828  -0.08228722  -0.29448620
C   -1.65218939  -4.65509945  -0.32273496
H   -1.25632939  -4.43908614   0.64759142
H   -0.86499525  -4.99911811  -0.96060301
H   -2.40237213  -5.41369217  -0.24111363
C   -2.27520171  -3.37905874  -0.91870119
N   -2.73906271  -2.42898843  -1.36242514
C   -0.26294131   3.20937197  -1.52213848
H    0.09031109   4.21008461  -1.38543762
H   -0.33523676   2.99643112  -2.56824013
H    0.42030534   2.52439132  -1.06511045
C   -1.65067620   3.06142928  -0.87105873
N   -2.68390791   2.95127923  -0.38630027
C    1.80842894  -2.62694028   1.92027555
H    1.20352995  -3.15852861   2.62484013
H    1.45880494  -1.61894628   1.83897214
H    2.82552197  -2.62596429   2.25257048
C    1.71837471  -3.31401426   0.54498664
N    1.65132525  -3.82557206  -0.47897847
C   -2.31118077   4.69972438   2.47256338
H   -1.39991184   4.85287192   1.93308683
H   -2.43016556   5.47594874   3.19934908
H   -3.13633824   4.71912735   1.79165387
C   -2.26386765   3.33419538   3.18298018
N   -2.22864088   2.31749697   3.71191778
C    3.38646670   1.85414407  -0.59530613
H    3.05858881   2.74306999  -0.09810701
H    2.62820060   1.52520541  -1.27481402
H    4.28605404   2.05961304  -1.13699259
C    3.65496930   0.75245733   0.44670763
N    3.85488169  -0.06779852   1.22253424
C   -2.62333300  -0.02945356   1.30278874
H   -3.03069349  -0.24322840   0.33673599
H   -1.89101157   0.74599419   1.21743533
H   -3.40689897   0.29044808   1.95745385
C   -1.96328340  -1.29826415   1.87380031
N   -1.47184647  -2.24295131   2.29894438
C    0.89195174   1.04696451   3.03431657
H    1.89138152   0.70483248   3.20456919
H    0.34717814   0.30176959   2.49320166
H    0.41209640   1.22798551   3.97339556
C    0.92821974   2.35136993   2.21650782
N    0.95522291   3.32255905   1.60761204
C   -4.29293029   0.48685287  -2.44024645
H   -4.44354720  -0.56924682  -2.35737203
H   -5.07635679   0.91358273  -3.03104561
H   -4.30228430   0.92610901  -1.46461044
C   -2.93514083   0.76047495  -3.11340226
N   -1.92420486   0.96419903  -3.61459736
C    4.83332924  -2.69565743  -1.17468194
H    5.86532091  -2.78339855  -1.44337299
H    4.34132498  -3.63162202  -1.33839256
H    4.75525319  -2.42754112  -0.14176526
C    4.16852102  -1.60817157  -2.03897618
N    3.67354109  -0.79848891  -2.68248253
