60
Energy:   -252.10423239
C    2.97097224   0.62735791  -0.73554776
H    3.63511181   1.42774659  -0.98693745
H    1.96294395   0.92317186  -0.93870327
H    3.21433443  -0.23504820  -1.32029526
C    3.11565556   0.29086509   0.76025949
N    3.22337887   0.04033089   1.87395597
C    0.50334817  -1.39229174   3.08229375
H    0.70024979  -1.36068434   2.03104168
H   -0.22480172  -2.14934445   3.28617613
H    1.40789590  -1.61662340   3.60800070
C   -0.03392498  -0.02532045   3.54524845
N   -0.43394926   0.99245181   3.88993927
C   -1.86894509   2.18811205   1.03771785
H   -2.56427376   2.58609534   0.32847351
H   -1.18535604   2.95529003   1.33611867
H   -2.39958563   1.83000465   1.89508522
C   -1.08832173   1.02655571   0.39505616
N   -0.50711216   0.16172422  -0.08343468
C    3.76394154  -3.46307806   2.07907411
H    4.51247316  -4.17605439   2.35523590
H    2.79359694  -3.88679118   2.23333898
H    3.86916119  -2.58438417   2.68050985
C    3.93174905  -3.09175667   0.59396096
N    4.05668937  -2.81529101  -0.51177328
C   -2.75806321  -2.44110401   1.03812194
H   -2.34617617  -3.36022915   1.39931195
H   -3.75701521  -2.32941898   1.40489222
H   -2.15903619  -1.62308356   1.38004047
C   -2.77527964  -2.45633180  -0.50170652
N   -2.78809806  -2.46766958  -1.64817881
C    0.84594208  -2.66683550  -1.71972994
H    0.99383820  -1.61252595  -1.61268646
H   -0.00438379  -2.84614909  -2.34398281
H    1.71431308  -3.10538904  -2.16526521
C    0.60711030  -3.29498741  -0.33409487
N    0.42928918  -3.76267506   0.69757343
C   -1.35725169  -0.15102084  -3.60550642
H   -1.74269482  -0.06189145  -2.61132850
H   -1.40824603  -1.17325257  -3.91750155
H   -1.93907121   0.45389588  -4.26917870
C    0.10827978   0.32132197  -3.63214775
N    1.19943458   0.67300266  -3.65198344
C   -4.80042808   0.54897269  -2.30052092
H   -4.23720524   1.39048554  -2.64626120
H   -5.82977815   0.67640507  -2.56338686
H   -4.42398729  -0.34337443  -2.75539238
C   -4.67134639   0.43872848  -0.76990532
N   -4.57523920   0.35664665   0.36970758
C    2.18460381   3.05716918   3.50077742
H    2.94589286   3.76463268   3.75540374
H    2.55634181   2.06469168   3.64808110
H    1.32920667   3.21382914   4.12419740
C    1.78502357   3.24190337   2.02503730
N    1.48751793   3.37944637   0.92628170
C    0.50349438   3.80960954  -2.24513887
H    1.12859017   3.00361300  -1.92183557
H    0.56849489   4.61491685  -1.54360187
H    0.82681813   4.14787645  -3.20739472
C   -0.95507553   3.32374914  -2.33521382
N   -2.04104712   2.96200399  -2.40227872
