60
Energy:   -251.61172606
C    1.69256070  -2.52325650  -0.15469572
H    1.73585736  -1.92743015   0.73300724
H    1.65102999  -1.88393707  -1.01169337
H    2.56429685  -3.14102354  -0.21248029
C    0.43536838  -3.41182193  -0.11572177
N   -0.50066844  -4.07339928  -0.08670390
C    0.38819970   0.94105120  -0.00318846
H    0.14645617   1.98251845   0.03931108
H    0.91231109   0.73337989  -0.91262728
H    1.00646659   0.68406434   0.83143895
C   -0.90804338   0.11087583   0.04331657
N   -1.87315528  -0.50722746   0.07794168
C   -1.27636384   2.12758076  -3.10965522
H   -0.47768098   1.41585635  -3.13096797
H   -1.17913241   2.74693729  -2.24256662
H   -1.23552158   2.73595359  -3.98892394
C   -2.62459541   1.38491803  -3.06145040
N   -3.62841510   0.83197188  -3.02555973
C    3.94987045   2.68988263  -0.11289630
H    3.64976737   3.02293110   0.85865763
H    3.27029137   3.07099163  -0.84626339
H    4.93708170   3.04531770  -0.32260788
C    3.93903416   1.15046620  -0.15387947
N    3.93096606   0.00430069  -0.18439330
C    3.11514828  -0.68732149  -3.70135283
H    2.32770541  -1.23355339  -4.17723580
H    3.41366168  -1.19651966  -2.80888094
H    3.95030366  -0.61342913  -4.36614942
C    2.61684092   0.72536161  -3.34411868
N    2.24582843   1.77716839  -3.07814162
C   -1.00090017   1.92690135   3.31527307
H   -0.20312395   1.22063305   3.21709787
H   -0.87794225   2.47996975   4.22296012
H   -0.98635251   2.59936121   2.48311611
C   -2.34700918   1.17955386   3.34786514
N   -3.34924853   0.62311967   3.37213142
C    3.44189981  -0.89206473   3.34210883
H    2.70548817  -1.47181067   3.85833815
H    4.33563839  -0.84672769   3.92868790
H    3.65741873  -1.34789940   2.39835810
C    2.90527955   0.53314833   3.11318428
N    2.50574138   1.59428423   2.94273956
C   -2.30671769  -2.66664838   2.68653734
H   -2.23556458  -3.54374390   2.07781666
H   -2.97305594  -1.96676021   2.22713667
H   -2.68007097  -2.93279199   3.65332273
C   -0.91274390  -2.02855328   2.83238561
N    0.12513295  -1.55346247   2.94097628
C   -4.69851718   1.53289654   0.27985853
H   -5.12532221   1.45848377  -0.69850765
H   -5.41498736   1.96008049   0.94999542
H   -4.42478731   0.55767321   0.62469253
C   -3.44701967   2.42876396   0.22717500
N   -2.51522289   3.09577798   0.18794972
C   -2.52149737  -2.55393435  -2.56940231
H   -3.31361199  -1.92278031  -2.91450982
H   -2.63388135  -2.72541820  -1.51922984
H   -2.55781463  -3.48844033  -3.08928569
C   -1.16742343  -1.87052455  -2.83592585
N   -0.15925383  -1.36169490  -3.03436473
