60
Energy:   -251.83896743
C    3.14313708  -0.99183355  -1.27739519
H    3.65470869  -1.83065320  -1.70115959
H    3.69646104  -0.09819485  -1.47774881
H    2.16816337  -0.91241926  -1.71100644
C    3.01371660  -1.18502956   0.24494696
N    2.91735717  -1.32887277   1.37839989
C   -0.60446260  -3.24760257  -1.64263327
H   -0.83526885  -3.29189309  -2.68650444
H   -0.67308482  -2.23464216  -1.30484444
H   -1.29846604  -3.85301718  -1.09790264
C    0.82533927  -3.77041954  -1.41040704
N    1.88989175  -4.15968055  -1.23750405
C    0.53581762   5.10683465   0.16322569
H    0.77612088   6.00769354   0.68820929
H   -0.22846153   5.30750963  -0.55823535
H    1.40911075   4.74049290  -0.33482243
C    0.03306105   4.04870568   1.16282507
N   -0.34126408   3.26088057   1.90707224
C    1.96697848  -4.38490477   2.32468391
H    2.42445626  -3.67982453   2.98685921
H    2.52166288  -4.42768333   1.41068484
H    1.95956129  -5.35176122   2.78297713
C    0.52089422  -3.94657277   2.02752174
N   -0.55578125  -3.62021467   1.80627100
C   -3.83181778  -2.51698012   1.72362619
H   -3.29902348  -3.44085817   1.81011175
H   -4.88013156  -2.69766540   1.83890907
H   -3.50050177  -1.84160336   2.48454342
C   -3.56670201  -1.89927118   0.33807602
N   -3.36931126  -1.43935880  -0.69352907
C   -2.00466176   0.16541594  -3.30470976
H   -2.24332623   1.00024196  -3.93001365
H   -2.01767323   0.47228032  -2.27973950
H   -2.72668226  -0.61000682  -3.45405845
C   -0.60326425  -0.36173663  -3.66498075
N    0.44013990  -0.75422568  -3.93321888
C    1.62036250   2.29213842  -2.74157550
H    1.73446306   1.88149242  -3.72302906
H    1.74034207   1.51655281  -2.01427160
H    2.36114459   3.04772832  -2.58275207
C    0.21728715   2.91194167  -2.60437672
N   -0.82736622   3.37341335  -2.50222599
C   -3.11053120   2.25208913  -0.05321268
H   -2.05992407   2.22832631  -0.25460823
H   -3.43262340   3.26804265   0.04162482
H   -3.63856950   1.78413384  -0.85763327
C   -3.39906820   1.49758070   1.25791791
N   -3.61389711   0.93581487   2.23411423
C    2.77709729   1.82003377   2.82662537
H    1.73429835   1.83783498   3.06569369
H    3.29757884   2.51797378   3.44862037
H    3.16434284   0.83648274   2.99265951
C    2.97150012   2.20548040   1.34837017
N    3.11624187   2.49246294   0.24774198
C   -0.39932642  -0.25932039   2.25945017
H   -1.20788495  -0.95076406   2.37363836
H   -0.62923572   0.64729447   2.77915231
H    0.49454091  -0.68576224   2.66447810
C   -0.19120945   0.04475198   0.76418186
N   -0.03625690   0.27114767  -0.34911336
