60
Energy:   -251.89336033
C    3.55017926   0.68322962  -2.50881295
H    3.93066609  -0.30939277  -2.63059446
H    4.25129860   1.38553854  -2.90892911
H    2.61869870   0.77427616  -3.02742032
C    3.33411020   0.97002555  -1.01126086
N    3.17323696   1.18355816   0.10373474
C   -1.17927351  -3.14996816   3.48027332
H   -1.24247622  -3.91511443   2.73498360
H   -1.57144165  -3.51930567   4.40476943
H   -0.15627076  -2.86657837   3.61464113
C   -1.99624055  -1.92502684   3.02896011
N   -2.60450965  -1.01300236   2.69293690
C    2.43362705   1.62626981   3.53070006
H    2.31285733   2.07940066   2.56893746
H    3.45928288   1.69009696   3.82878612
H    1.82217573   2.13704490   4.24493754
C    2.01129954   0.14709977   3.45792995
N    1.69685752  -0.95420955   3.40374930
C    2.70012330  -2.65800345   0.64801157
H    2.99710402  -2.86273722   1.65537780
H    2.81727730  -1.61362690   0.44688564
H    3.31124040  -3.22168887  -0.02555635
C    1.22452447  -3.05517650   0.45706218
N    0.12587407  -3.35088988   0.31489168
C   -3.10871608  -1.59896914  -0.65581931
H   -2.24413228  -2.09743660  -0.26991100
H   -3.98603754  -2.15332491  -0.39525102
H   -3.17037152  -0.61619468  -0.23718816
C   -3.00164545  -1.49815112  -2.18878102
N   -2.92192649  -1.42308751  -3.33014070
C    0.21193328  -3.16339847  -3.42382050
H   -0.35514159  -3.39389156  -2.54621056
H    0.12366624  -3.96558169  -4.12639441
H   -0.16126186  -2.26189997  -3.86305271
C    1.69226041  -2.97460016  -3.04357481
N    2.79443125  -2.83403123  -2.76046462
C   -1.90482641   1.86768652  -3.66913725
H   -1.32383385   0.97754623  -3.79160394
H   -1.33993358   2.71152407  -4.00638103
H   -2.80438011   1.78824622  -4.24306362
C   -2.25936055   2.04866281  -2.18147024
N   -2.52332733   2.18340789  -1.07383453
C   -3.26561030   2.30966067   2.51684497
H   -3.37515088   1.87197918   1.54662027
H   -3.84307457   3.20890343   2.56972756
H   -3.60952190   1.62072603   3.25980725
C   -1.78185860   2.63690894   2.76782198
N   -0.67713801   2.88056016   2.95468578
C   -0.18500083   0.28266428   0.69783006
H    0.49345493   1.03762911   1.03639476
H   -0.04160167  -0.60901912   1.27162138
H   -1.19088412   0.62680954   0.81891656
C    0.07986291  -0.01587562  -0.78955729
N    0.27706601  -0.23815214  -1.89698478
C    0.62835214   3.86981822  -0.07228646
H    0.74523348   4.92189107   0.08385977
H    1.30804844   3.33771942   0.55999742
H   -0.37558335   3.58374450   0.16260598
C    0.92679297   3.53317597  -1.54510861
N    1.14899574   3.28253052  -2.64169164
