60
Energy:   -252.10184986
C   -2.99329663  -1.65778237   2.40178319
H   -2.52466012  -0.79727606   2.83167724
H   -3.77312816  -2.00016818   3.04949750
H   -3.40794142  -1.39982861   1.44971772
C   -1.94862802  -2.77475115   2.22109493
N   -1.17082475  -3.60638518   2.08656430
C    2.01581416   1.93307076   2.84932596
H    2.94401817   1.56950928   3.23811968
H    1.77925173   2.87005070   3.30867975
H    2.10000631   2.06589594   1.79094594
C    0.89919159   0.91660607   3.15190413
N    0.06781533   0.15980190   3.37718733
C   -2.77042184   2.47572239   3.16898000
H   -3.37489727   2.25701965   2.31359778
H   -3.35341785   3.00848341   3.89090827
H   -2.41773643   1.56187450   3.59955418
C   -1.56895185   3.33897258   2.74134821
N   -0.67440283   3.98170160   2.42295690
C   -0.24609800   4.07217248  -0.90614340
H   -0.40104991   4.51333788  -1.86856907
H    0.01842390   4.83405260  -0.20296067
H   -1.14543761   3.58851133  -0.58651980
C    0.89058189   3.03679494  -0.99304655
N    1.73689174   2.26590929  -1.05774990
C    1.67013966   1.28738045  -4.40942259
H    0.93181525   2.04005317  -4.59179860
H    2.19240868   1.07244576  -5.31823349
H    2.36353268   1.63868690  -3.67410702
C    0.98312908   0.00781870  -3.89723298
N    0.47161847  -0.94487318  -3.51588453
C   -3.00291327   0.19563833  -3.08930930
H   -3.81612100   0.17867714  -3.78451121
H   -3.38737106   0.20154852  -2.09078220
H   -2.39369697  -0.67237654  -3.23180416
C   -2.15598476   1.46083833  -3.32078518
N   -1.52540799   2.40283723  -3.49312950
C    3.70694247  -0.61304929  -1.38446436
H    4.58533623  -1.10664715  -1.74458343
H    3.61026160   0.33831313  -1.86452837
H    2.84700524  -1.21141025  -1.60211367
C    3.81952726  -0.41069521   0.13802619
N    3.90335175  -0.26003340   1.27158962
C    2.09805114  -2.92637003   2.81355555
H    1.18615390  -2.41884704   3.04969961
H    2.92976445  -2.31865606   3.10309968
H    2.13535746  -3.85665447   3.34088674
C    2.15976298  -3.19256386   1.29799212
N    2.20571025  -3.39075726   0.16958627
C   -0.61841258  -4.02200865  -1.57582866
H   -0.87231426  -4.79054068  -2.27568054
H   -0.28213981  -4.46772996  -0.66305693
H    0.16064326  -3.41197750  -1.98305473
C   -1.85822565  -3.15237886  -1.29617247
N   -2.78132283  -2.50489994  -1.08795572
C    0.09496742  -0.54354074   0.04261418
H    0.15703590  -0.96401474  -0.93934778
H    0.00001644  -1.32991988   0.76198283
H    0.98121342   0.02056136   0.24572980
C   -1.13324026   0.38154191   0.12821775
N   -2.04769670   1.07030800   0.19195350
