42
Energy:   -219.93426945
O    0.71721018   0.16620368  -2.37000765
H   -0.24172032   0.21051251  -2.23996036
C    0.95337122  -0.45593128  -3.62288827
H    2.03813392  -0.49773260  -3.75337867
H    0.52971755   0.11173436  -4.46612644
H    0.56435726  -1.48526904  -3.66658322
O    1.90875946  -0.52135989   2.05860272
H    2.33790839  -0.32186713   1.21334707
C    2.89404776  -0.42556411   3.07475423
H    2.39373170  -0.65320774   4.01992481
H    3.32793474   0.58362503   3.15257904
H    3.71491997  -1.14731875   2.94052906
O    0.48659091   1.97482572   1.98530448
H    0.91748616   1.12292783   2.14968980
C   -0.52605753   1.76469651   1.01426245
H   -1.00115308   2.73409898   0.84097577
H   -1.30146333   1.06037684   1.35405205
H   -0.12589720   1.40407291   0.05374193
O   -2.03364145   0.21568472  -1.84810816
H   -2.46099764  -0.20617541  -1.08796081
C   -2.80457727   1.35388263  -2.19838985
H   -2.30921360   1.81701782  -3.05606451
H   -2.85414743   2.09932272  -1.38929207
H   -3.83281173   1.09570629  -2.49647741
O   -2.98169678  -0.95337896   0.52459836
H   -2.16036657  -1.34703339   0.85456222
C   -3.87842189  -0.84794377   1.61881098
H   -4.79807326  -0.40274902   1.22954475
H   -3.49647233  -0.19649152   2.42037310
H   -4.13151704  -1.82607500   2.05696560
O    2.79657249   0.22556859  -0.48469060
H    2.12960945   0.19198614  -1.18644254
C    3.22194556   1.57310941  -0.35929018
H    3.97287333   1.59286448   0.43519231
H    2.40384933   2.25236528  -0.07274637
H    3.68807828   1.95925644  -1.27928371
O   -0.46102271  -1.89434151   1.31296987
H    0.32287696  -1.48625585   1.70969480
C   -0.04655552  -2.56654714   0.13445797
H   -0.94159101  -3.02039863  -0.29961058
H    0.67984590  -3.36936541   0.33595521
H    0.38757717  -1.88483272  -0.61358720
