42
Energy:   -219.43592390
O   -0.05855754   1.63349590  -1.60056435
H   -0.90524773   1.54943259  -1.13745274
C    0.04147597   0.55283653  -2.51418483
H    1.00074705   0.66292576  -3.02718049
H   -0.75533464   0.56345669  -3.27428837
H    0.03213289  -0.42857413  -2.01466189
O    2.30460332  -1.11681717   0.36659183
H    2.51173362  -0.21400164   0.08296456
C    1.89121697  -1.05788743   1.72238413
H    1.66184047  -2.08300118   2.02572131
H    0.98473131  -0.44889531   1.86447454
H    2.67726614  -0.67203675   2.39023388
O   -2.14576008  -1.77408936   0.02592490
H   -1.34897661  -2.21481923  -0.30470565
C   -2.19036268  -1.96290118   1.43123429
H   -3.09376557  -1.46028968   1.78722601
H   -1.32579182  -1.51741993   1.94780086
H   -2.25583930  -3.02475505   1.71576284
O   -1.03779787   1.33207651   2.30763235
H   -1.53545044   1.28278409   1.47797251
C   -0.05512991   2.34463881   2.16061179
H    0.49611498   2.38677873   3.10392430
H   -0.49268517   3.33828152   1.97622930
H    0.66318083   2.12632797   1.35491495
O   -2.41880615   0.99552192  -0.16561055
H   -2.43063852   0.02697999  -0.15112617
C   -3.76468188   1.44293534  -0.13440923
H   -3.73293311   2.53572673  -0.15126765
H   -4.29548285   1.13087793   0.77863394
H   -4.34554676   1.10478898  -1.00677977
O    2.53006236   1.55664317  -0.51847054
H    1.65794155   1.65893274  -0.92757372
C    3.34515259   2.62663955  -0.96932466
H    4.32354113   2.49601645  -0.49902829
H    2.95364642   3.61286203  -0.67459519
H    3.48786811   2.62161088  -2.06128818
O    0.35843692  -2.79810159  -0.75229162
H    1.07627248  -2.26585280  -0.37833092
C    0.94529739  -3.90258059  -1.42180990
H    0.12286943  -4.49141901  -1.83698068
H    1.52266795  -4.55205491  -0.74534580
H    1.59998873  -3.59707387  -2.25296706
