42
Energy:   -218.39866410
O   -1.87862671   0.62270800   1.51364301
H   -1.27901844   0.03613386   1.99822941
C   -1.40877679   1.95095112   1.67961000
H   -2.09547399   2.59837915   1.12755103
H   -0.39710850   2.09841383   1.27026986
H   -1.40792840   2.27325103   2.73265292
O   -2.75908665   0.76071442  -1.13911654
H   -2.54923902   0.68882502  -0.19613236
C   -3.98324984   0.07895548  -1.36084384
H   -4.20467064   0.16980148  -2.42771076
H   -4.82251147   0.51846261  -0.79937190
H   -3.92378578  -0.99277019  -1.11458087
O    1.77124738   1.32473364  -0.37169323
H    1.03134615   1.70470248  -0.86827468
C    2.83474737   2.26323339  -0.39852158
H    3.65974086   1.81935281   0.16525229
H    2.57020444   3.21946695   0.07940284
H    3.19203917   2.47197269  -1.41908408
O    0.04314561  -1.07042486   2.72813432
H    0.30995581  -1.93715611   2.38752820
C    1.22008804  -0.30115262   2.91670929
H    0.90134797   0.67174487   3.30058483
H    1.77338501  -0.13369445   1.97937394
H    1.90785398  -0.74917219   3.65089850
O   -0.44329943   2.19121505  -1.85332667
H   -1.29797754   1.76961524  -1.67953887
C   -0.24752092   2.20416959  -3.25833084
H    0.71950949   2.68232957  -3.43637695
H   -1.01817039   2.78424495  -3.78973397
H   -0.21320069   1.19257657  -3.69224214
O    1.11155228  -3.31414368   1.34142334
H    1.22675181  -2.75826114   0.55647306
C    1.88297061  -4.48975215   1.15329501
H    1.74176534  -5.10443640   2.04644089
H    2.95913628  -4.28016733   1.04976250
H    1.55766963  -5.07661748   0.28005639
O    1.31121309  -1.44991587  -0.75950804
H    1.57079794  -0.52914197  -0.60714536
C   -0.06067188  -1.45623261  -1.12065277
H   -0.33651205  -2.50083314  -1.28860259
H   -0.25866738  -0.89741493  -2.04871414
H   -0.71097175  -1.05466670  -0.32778946
