42
Energy:   -217.50262385
O   -1.72017480   1.13235842   0.69046995
H   -0.86773802   1.56900968   0.54517545
C   -1.90608756   1.00649074   2.09122958
H   -2.87070934   0.51279107   2.23700570
H   -1.93977573   1.98003067   2.60490499
H   -1.13036250   0.38802871   2.56928050
O   -3.21834120  -1.15186055  -0.03928237
H   -2.79194760  -0.29838085   0.12859908
C   -2.80023466  -1.59744930  -1.31958364
H   -3.28970244  -2.55971886  -1.49262638
H   -1.71164891  -1.75215350  -1.38143030
H   -3.10020220  -0.91170767  -2.12739255
O    0.77721231  -1.73256027   0.21705727
H    0.03530454  -2.08695556   0.72930731
C    1.58829930  -0.97579969   1.10135650
H    2.41900597  -0.58401513   0.50813101
H    2.00869694  -1.58343122   1.91795130
H    1.05238542  -0.12170234   1.54417854
O   -1.49796116  -2.59442269   1.65976762
H   -2.20476999  -2.16827511   1.15257653
C   -1.95712465  -3.88165870   2.04019646
H   -1.14894594  -4.34762917   2.61046296
H   -2.18049826  -4.52614901   1.17560765
H   -2.84995223  -3.84166468   2.68365331
O    1.45402372  -0.37454073  -2.17837621
H    1.20354868  -0.94455602  -1.43623869
C    0.28021670   0.27838012  -2.63489041
H    0.58038062   0.91621540  -3.47068523
H   -0.17745739   0.91831008  -1.86430530
H   -0.48348186  -0.42599986  -3.00011732
O    3.02386290   1.69211651  -1.12983024
H    2.56955076   0.98526282  -1.61189000
C    4.41927789   1.50065283  -1.29921867
H    4.91573030   2.30523773  -0.74997978
H    4.73222417   1.56314692  -2.35322837
H    4.76965026   0.54055715  -0.88905673
O    0.74750586   2.45282596   0.34365519
H    1.59272621   2.25103021  -0.08448533
C    0.48937087   3.83515696   0.15640909
H   -0.46608003   4.04528886   0.64471572
H    0.39767204   4.11054327  -0.90591433
H    1.25655104   4.47719681   0.61684014
