42
Energy:   -221.48116500
O    2.28898167   0.48228132   0.57005107
H    1.71523501   0.94137732   1.20129500
C    2.83846138   1.45812238  -0.30077615
H    3.48193853   0.92395776  -1.00511309
H    3.45486867   2.20155021   0.22850114
H    2.06920464   1.99314073  -0.87937511
O   -1.78619148  -1.41378678   0.79116408
H   -1.57102026  -1.86724523  -0.03738891
C   -0.73586595  -1.67278522   1.70891670
H   -0.99429386  -1.15477661   2.63647656
H    0.23609933  -1.28805154   1.36244764
H   -0.62433374  -2.74456467   1.93613183
O   -0.74919986  -2.51665209  -1.59847730
H    0.19456819  -2.34012096  -1.46978421
C   -0.95133074  -2.79460074  -2.97485712
H   -2.01935382  -2.99110418  -3.10212964
H   -0.39772320  -3.68379999  -3.31488759
H   -0.68037583  -1.94730473  -3.62404911
O   -2.20212797   1.29719270   1.29755838
H   -2.16978349   0.33745143   1.16998955
C   -3.56083140   1.69679631   1.21524353
H   -3.57902991   2.78025362   1.36110058
H   -4.18739381   1.23674720   1.99534076
H   -4.01008722   1.47682104   0.23414343
O   -0.85010898   2.21967778  -1.06287417
H   -1.33866675   2.02177666  -0.25011976
C   -0.62116364   0.99264704  -1.73705023
H   -0.06997557   1.23388657  -2.65000171
H   -1.55502937   0.48552844  -2.02601883
H   -0.01261633   0.29005207  -1.14645069
O    1.88802837  -1.81008417  -0.99245460
H    2.08647822  -1.01303200  -0.47888984
C    2.72240665  -2.85136374  -0.51070414
H    2.48589048  -3.74150176  -1.09994059
H    2.54055669  -3.08576084   0.54984568
H    3.79384257  -2.63163705  -0.63924439
O    0.42249506   1.82145100   2.22897320
H   -0.51289599   1.67185237   2.02627363
C    0.67024175   3.21365237   2.11525999
H    1.72813944   3.36442836   2.34678594
H    0.07690084   3.81056448   2.82548519
H    0.48506168   3.59696314   1.09960329
