42
Energy:   -217.51741727
O   -1.10744041  -1.11529278   2.82667335
H   -1.10799035  -1.73598494   2.08292325
C   -2.29309638  -1.33718022   3.57334574
H   -2.27632977  -0.62993777   4.40701966
H   -2.34891779  -2.35497606   3.99018253
H   -3.20624867  -1.15148410   2.98644950
O    1.25966044  -1.30202110  -0.58230845
H    1.34091641  -0.50686063  -1.12961144
C    1.96484534  -1.06681157   0.62596491
H    1.86305332  -1.97218267   1.23047029
H    1.55232189  -0.22363842   1.20186487
H    3.03854272  -0.88405291   0.46302153
O   -1.24172646   0.64465110  -2.94589277
H   -0.35191009   0.84789065  -2.62132569
C   -1.39375946  -0.76573384  -2.93059357
H   -2.40125243  -0.97712188  -3.29904738
H   -1.30365230  -1.19220492  -1.91926749
H   -0.67496104  -1.27808826  -3.58907600
O    1.58561603   2.62587130   0.48503463
H    0.81564425   2.26993471   0.95287635
C    2.03026421   3.77007431   1.19610512
H    2.89780063   4.15833257   0.65562267
H    2.34588623   3.53540350   2.22473999
H    1.27040472   4.56604239   1.23883323
O   -0.96692252  -2.64483045   0.47018683
H   -0.19145993  -2.23140971   0.06255423
C   -1.05399947  -3.97327916  -0.01989009
H   -1.93263394  -4.42424897   0.44927182
H   -0.17543440  -4.58244991   0.24432904
H   -1.19051920  -4.01561124  -1.11183684
O    1.36099919   1.20691047  -1.91050304
H    1.51061771   1.78206872  -1.14549941
C    2.00649254   1.79859886  -3.02664683
H    1.82795082   1.13798319  -3.87940412
H    3.09513547   1.89108582  -2.88851623
H    1.60195622   2.79250265  -3.27420076
O   -0.66063139   1.41700315   1.64558182
H   -0.80448877   0.62404642   2.18312061
C   -1.50478087   1.32556968   0.50910245
H   -1.33007089   2.22648297  -0.08530218
H   -2.57312555   1.29348143   0.77440857
H   -1.27675606   0.45146761  -0.12076069
