42
Energy:   -219.77504427
O    1.90419845  -0.74326014  -1.33844194
H    1.91386311  -0.25194336  -0.50361401
C    0.55096811  -0.88030567  -1.74157957
H    0.55842702  -1.43587526  -2.68326529
H    0.06046353   0.08921060  -1.92108106
H   -0.05365789  -1.44655022  -1.01592686
O    1.70396899   0.75387423   1.11635631
H    1.34811637   1.51449100   0.63339221
C    2.71608565   1.23243439   1.98763916
H    3.10604699   0.36294247   2.52373539
H    2.33318075   1.94859934   2.73145965
H    3.55249298   1.70473719   1.44900183
O   -1.80258290   2.08857077  -1.61132282
H   -2.07220898   1.38961037  -0.99717349
C   -2.88165846   2.31760236  -2.50332856
H   -2.56105602   3.10750670  -3.18798206
H   -3.79301169   2.66071719  -1.98904767
H   -3.13438714   1.42860694  -3.10215466
O    0.70110233   2.77376725  -0.52929564
H   -0.17274191   2.66619680  -0.93333539
C    1.64503887   2.92100053  -1.57802819
H    2.62362853   3.04104263  -1.10533656
H    1.45483805   3.80992180  -2.19965505
H    1.68987838   2.03953297  -2.23664924
O   -1.67343936  -2.57189380   0.91449154
H   -0.82750079  -2.41279477   1.35889980
C   -1.63461195  -3.88184732   0.37130835
H   -2.59492086  -4.04452204  -0.12551047
H   -1.51334373  -4.65856663   1.14252717
H   -0.83709853  -4.00821177  -0.37754524
O    0.82606418  -1.81230633   1.95323345
H    1.13661854  -0.92333391   1.72584106
C    1.85779077  -2.72708646   1.61968985
H    1.49139681  -3.72323713   1.88222463
H    2.78607300  -2.54520069   2.18359322
H    2.09783594  -2.72393338   0.54491280
O   -2.36043916   0.09137635   0.26978915
H   -2.27197755  -0.85894920   0.43555756
C   -2.03233756   0.77028292   1.47144176
H   -2.13717094   1.83925469   1.26700470
H   -0.99631473   0.58467611   1.79545433
H   -2.70761723   0.51386249   2.30271985
