42
Energy:   -217.42127569
O    0.66096809  -2.75197209   0.90164210
H    1.39016386  -2.11457184   0.88120366
C    0.19526949  -2.91601085  -0.42830146
H   -0.62571691  -3.63695549  -0.38700539
H    0.96788931  -3.31675594  -1.10301571
H   -0.19306459  -1.98085486  -0.86126481
O    2.50048227  -0.58683390   0.99752786
H    2.27634399   0.29902404   0.67590540
C    2.53175926  -0.53502085   2.41487430
H    2.78563498  -1.54079805   2.76048180
H    1.55927027  -0.25921491   2.85187953
H    3.29475797   0.16042130   2.79824164
O    0.58440574   0.56311538  -2.03973945
H    0.93992248   1.11948171  -1.33087584
C    1.66356319  -0.17583074  -2.58920429
H    1.24551030  -0.79700902  -3.38598187
H    2.14190710  -0.84089257  -1.85323065
H    2.43943483   0.46910648  -3.03062984
O    1.51058055   1.96966992   0.23425755
H    0.71739974   1.94883392   0.79000331
C    2.18782510   3.18836873   0.49626291
H    3.07852709   3.19541618  -0.13783921
H    2.51420192   3.27667930   1.54433578
H    1.58284887   4.07359418   0.24495235
O   -1.28871437  -1.15167647   2.19146863
H   -0.66155922  -1.79290985   1.82551856
C   -2.57059539  -1.45445494   1.66455306
H   -3.26469681  -0.72280564   2.08692459
H   -2.92014537  -2.45966192   1.94766273
H   -2.61038719  -1.36895626   0.56733662
O   -2.07637987  -0.36842672  -1.91441207
H   -1.16229815  -0.05365743  -1.97604146
C   -2.68748712  -0.16595769  -3.17856712
H   -3.71626065  -0.52584349  -3.09143256
H   -2.19489436  -0.73207772  -3.98456825
H   -2.72068288   0.89560473  -3.46970383
O   -0.78910903   1.58892900   1.73947124
H   -1.00684797   0.67904413   1.99071326
C   -1.85967950   2.08608997   0.95255090
H   -1.59806268   3.11165324   0.67821202
H   -2.81420978   2.11238197   1.50114730
H   -2.00787455   1.51173506   0.02468669
