42
Energy:   -220.14388408
O    2.12486039  -0.89531437   0.77347644
H    1.55468650  -1.56128881   0.36140478
C    2.87852682  -1.54150691   1.78686477
H    3.51517038  -0.77711145   2.24059349
H    3.52929844  -2.33685345   1.39101443
H    2.24542388  -1.97229970   2.57830369
O    1.47335101   1.82982070   0.77283940
H    1.75308093   0.90248897   0.78801554
C    2.64324108   2.63216742   0.76140599
H    2.30993865   3.67337035   0.74434320
H    3.26873998   2.45932916  -0.12834420
H    3.26659290   2.48791130   1.65773183
O   -0.56140525  -0.03824177  -2.83583279
H   -1.04480246  -0.32781448  -2.04786194
C    0.69675219   0.46002823  -2.41003867
H    1.22807252   0.78178609  -3.30984742
H    1.30899962  -0.30489447  -1.90722292
H    0.60521765   1.32826618  -1.73879979
O   -2.19208027   0.45832786   1.84738668
H   -1.96105328   1.38044384   1.66096802
C   -1.17781618  -0.07948080   2.68079172
H   -1.45374267  -1.11836777   2.88095078
H   -1.09826246   0.44465102   3.64605560
H   -0.18669924  -0.07592335   2.20073766
O   -1.99290976  -0.97018479  -0.54106677
H   -2.12890560  -0.51848227   0.30503798
C   -3.27040069  -1.22892232  -1.10107177
H   -3.09871028  -1.73788974  -2.05341612
H   -3.84019166  -0.30857117  -1.30372746
H   -3.88662199  -1.88693533  -0.46856285
O   -1.12302902   2.89553623   0.90440015
H   -0.19308513   2.63072663   0.84520980
C   -1.62358849   3.00790553  -0.41822872
H   -2.67186395   3.30682183  -0.33306532
H   -1.58385376   2.05582508  -0.97026251
H   -1.09700175   3.77407987  -1.00853425
O    0.27336691  -2.64306907  -0.39342616
H   -0.57288114  -2.17569208  -0.45544443
C    0.46436250  -3.35056236  -1.60813094
H    1.42189349  -3.87120383  -1.52122842
H    0.51581683  -2.68523662  -2.48418542
H   -0.31848766  -4.10363937  -1.78923306
