42
Energy:   -217.39920927
O    2.03511463   0.47153811  -2.03376631
H    2.21992602  -0.39559658  -1.64345175
C    3.24493087   1.21238600  -2.02898745
H    3.01877698   2.18612822  -2.47189344
H    4.03594916   0.73881143  -2.63131172
H    3.63583985   1.38176026  -1.01346795
O   -0.01155538  -2.90545452   0.40253584
H   -0.77086610  -2.34957198   0.17261172
C   -0.12369344  -3.24042443   1.77649144
H    0.73932784  -3.86655395   2.01865111
H   -1.03600398  -3.81492012   2.00103881
H   -0.09920201  -2.35660884   2.43303352
O   -0.75985799   0.82205364  -2.06279033
H    0.19865266   0.76902541  -2.19266954
C   -1.08168551   2.17438023  -1.77964086
H   -2.16480552   2.21613282  -1.63613831
H   -0.82011235   2.85544451  -2.60457010
H   -0.60100031   2.54223642  -0.85964038
O    2.36455678  -2.03310034  -0.81015115
H    1.59848158  -2.40151530  -0.34558417
C    2.75783677  -2.96884819  -1.80123166
H    3.62165161  -2.53811382  -2.31482395
H    1.97123663  -3.15091750  -2.55015644
H    3.06232995  -3.93738846  -1.37462765
O   -1.98341198   2.77192662   1.52858830
H   -1.41113365   2.01168012   1.71009879
C   -2.26243682   3.40592832   2.76661931
H   -2.90793026   4.25985263   2.54382640
H   -1.35587814   3.78402204   3.26458902
H   -2.79678889   2.74845174   3.47016017
O   -1.91249129  -0.90042892  -0.19822167
H   -1.61621828  -0.34777879  -0.93661412
C   -3.24347618  -0.52258357   0.11522035
H   -3.56149863  -1.15475063   0.94871403
H   -3.94012950  -0.68550459  -0.72198227
H   -3.32324069   0.52846716   0.43413620
O   -0.45197653   0.41973497   1.86475890
H   -0.92512724  -0.12626097   1.21943718
C    0.88530264   0.55932906   1.41228603
H    1.40392032   1.17690152   2.15061195
H    0.95339787   1.06469139   0.43619726
H    1.41328848  -0.40456112   1.34211491
