42
Energy:   -217.82468426
O   -0.36044856   2.83284733   0.08496511
H    0.51535182   2.43462713   0.19818008
C   -0.87558209   3.11416743   1.37648756
H   -1.86222929   3.56214772   1.23045272
H   -0.25424494   3.83153420   1.93514880
H   -0.99927732   2.20898974   1.99141047
O    1.97213671   1.30979539   0.71167146
H    1.50936580   0.77006813   1.36966906
C    3.31610270   1.45475664   1.14210779
H    3.82285268   2.06514375   0.38970016
H    3.84583032   0.49194117   1.21388763
H    3.39880217   1.97000140   2.11188146
O    0.38477894  -0.29292472   2.33270637
H   -0.49031927  -0.41017995   1.93411184
C    0.93164991  -1.58247229   2.55750177
H    1.91706834  -1.43188035   3.00667634
H    1.06472172  -2.15607437   1.62688376
H    0.32759437  -2.18507808   3.25374921
O    1.60809731  -0.48973827  -1.45793789
H    1.83506299   0.16982495  -0.78571306
C    0.45638489  -0.02605753  -2.14429963
H    0.21455597  -0.78069408  -2.89764394
H    0.62641638   0.93092486  -2.66203638
H   -0.41631889   0.08730806  -1.48224700
O    0.87488701  -3.15341279  -0.83939116
H    1.13423886  -2.24761778  -1.06454730
C    1.63061474  -4.03319340  -1.65633390
H    1.32607155  -5.04890707  -1.38975484
H    2.71504439  -3.94601556  -1.48548401
H    1.43539548  -3.88910566  -2.73053383
O   -2.61572570   1.51511512  -0.95818992
H   -1.87177211   2.06019715  -0.66180855
C   -3.33694304   2.26069967  -1.92591044
H   -4.17119440   1.63211243  -2.24900168
H   -2.73091047   2.50572408  -2.81217501
H   -3.75191213   3.19622377  -1.51925006
O   -2.04642172  -0.51694281   0.93229025
H   -2.39174267   0.11989637   0.28916307
C   -2.15717770  -1.81010411   0.35957676
H   -1.76387745  -2.51503922   1.09704988
H   -1.56744638  -1.91799594  -0.56419467
H   -3.19948093  -2.09061246   0.14118175
