42
Energy:   -217.73928491
O    0.50001009  -2.15350525  -1.27458874
H    0.10024982  -1.30487760  -1.51634505
C    1.87565855  -1.92306751  -1.01569968
H    2.31048692  -2.88903614  -0.74493393
H    2.04000029  -1.22777090  -0.17764733
H    2.41569517  -1.54026290  -1.89581241
O    1.64599417   0.85018700   1.56529275
H    1.76120150   1.14539712   0.64986852
C    2.10688157   1.88940004   2.41391093
H    1.96989530   1.54031333   3.44097394
H    1.53577020   2.82302733   2.29164392
H    3.17523641   2.11412450   2.26936271
O   -0.67444453   0.35743555  -2.01952953
H   -1.35388066   0.70777795  -1.42450851
C   -1.31486182  -0.02552518  -3.22607026
H   -0.53527170  -0.41780071  -3.88473888
H   -1.79974269   0.82081202  -3.73732481
H   -2.06551952  -0.81727319  -3.07631904
O    1.70730236   1.57434089  -1.14490692
H    0.90885821   1.19060144  -1.53689448
C    2.48530556   2.11875613  -2.19887886
H    3.38060739   2.54672490  -1.73979001
H    1.96297753   2.92187621  -2.74197083
H    2.80581061   1.35789567  -2.92767596
O   -2.85603726  -1.05245063   1.43603917
H   -2.03143217  -1.06499227   1.94426396
C   -2.83014999  -2.15712859   0.54634808
H   -3.76607829  -2.12785902  -0.01815765
H   -2.77776736  -3.12419880   1.07056999
H   -1.99669072  -2.10546717  -0.17160322
O   -0.28875499  -0.90885646   2.61366042
H    0.39607690  -0.30647003   2.28722643
C    0.23926920  -2.22485061   2.57025995
H   -0.54491258  -2.89038563   2.94121449
H    1.12480492  -2.34914743   3.21303061
H    0.50313191  -2.54373084   1.54973596
O   -2.52771200   1.25038364  -0.14484335
H   -2.82804492   0.51199877   0.40562117
C   -1.83543443   2.15991324   0.69541937
H   -1.50410971   2.98528262   0.05943625
H   -0.94552668   1.71216237   1.16484530
H   -2.47485257   2.57624611   1.48951553
