42
Energy:   -217.99344568
O    0.99390312  -2.13516779   1.03492977
H    1.44936786  -1.28730925   0.92487959
C   -0.30465075  -1.86411054   1.53774145
H   -0.80372963  -2.82975959   1.65575581
H   -0.90726847  -1.25014454   0.85022784
H   -0.28503071  -1.36760542   2.52053088
O   -0.26945868   1.41370909   3.03917395
H    0.01286481   1.90345431   2.25249337
C    0.89704460   1.03622308   3.75283226
H    0.56084569   0.48571013   4.63566349
H    1.48560433   1.90217463   4.09415716
H    1.55728906   0.37551298   3.16946551
O    0.49310714   2.71169063   0.61774504
H   -0.26931451   2.44687589   0.08201222
C    0.48878812   4.12780577   0.70220238
H    1.35387103   4.40897745   1.30888125
H   -0.41492103   4.52177636   1.19299182
H    0.58947832   4.61277184  -0.28138632
O   -1.68498527   1.62676519  -0.73626409
H   -1.61617825   0.78538553  -1.21141580
C   -2.62413270   1.45313446   0.31272983
H   -2.68941293   2.41010627   0.83754278
H   -2.31332343   0.68595040   1.03909306
H   -3.62984804   1.19621541  -0.05511062
O    0.41058098  -2.97255114  -1.57742008
H    0.63517661  -2.80492759  -0.65012162
C    1.12366340  -4.12707617  -1.99108565
H    0.85913434  -4.30153873  -3.03754271
H    0.84971377  -5.02505180  -1.41543932
H    2.21554630  -3.99629744  -1.93221305
O   -1.37683458  -0.84878482  -2.02297915
H   -0.79591765  -1.61896765  -1.93479066
C   -2.01005677  -0.93007830  -3.28984725
H   -2.66052896  -0.05514175  -3.37265528
H   -2.63446497  -1.83096530  -3.39612213
H   -1.29367780  -0.90321850  -4.12582395
O    2.09561784   0.38692348   0.34378126
H    1.67714318   1.25006813   0.47899793
C    2.18234308   0.16497760  -1.05470097
H    2.65595296  -0.81130246  -1.18907405
H    2.80119462   0.91806074  -1.56721036
H    1.19550398   0.13572942  -1.54262563
