42
Energy:   -219.02850737
O    1.21582809  -1.87267919  -2.01922871
H    0.39867873  -2.03438135  -1.52471621
C    1.02578028  -2.36303351  -3.33679019
H    1.95548454  -2.17289422  -3.87991286
H    0.20902175  -1.84962486  -3.86791577
H    0.83043530  -3.44650849  -3.36324065
O   -0.43953832   1.95837576   1.97237430
H    0.06379078   2.06597597   1.15170062
C   -0.46972248   3.21663226   2.62690718
H   -1.04037585   3.07742070   3.54911111
H   -0.97049650   3.99470260   2.02973950
H    0.53419977   3.57908799   2.89809585
O    0.88743678   1.97155584  -0.47867603
H    1.68096888   1.52409078  -0.80807715
C   -0.19525679   1.60035891  -1.31684142
H   -1.08083718   2.11309515  -0.93169974
H   -0.39376045   0.51725852  -1.30049553
H   -0.04894009   1.91105902  -2.36318467
O    2.92840254   0.25749157  -1.42912113
H    2.40596383  -0.51480127  -1.69188496
C    4.28584743  -0.14729598  -1.35150549
H    4.86011147   0.73443889  -1.05443709
H    4.67971209  -0.50189804  -2.31685793
H    4.45284998  -0.93315090  -0.59829932
O   -1.12409191  -2.08654209  -0.48864217
H   -0.88863882  -1.74221947   0.38567302
C   -2.47441787  -1.73254737  -0.74131053
H   -2.72317229  -2.12802664  -1.72984612
H   -2.63197372  -0.64277580  -0.76005641
H   -3.17285393  -2.17212610  -0.01210895
O   -0.19070546  -0.87859180   1.89178059
H   -0.29435188   0.06694082   2.07521655
C    1.19304733  -1.13248856   1.70930200
H    1.29180216  -2.20180889   1.50366470
H    1.78971844  -0.90065062   2.60541143
H    1.61788508  -0.58019398   0.85650607
O   -3.07800195   1.22749185   1.17986053
H   -2.20726356   1.52751002   1.48023867
C   -3.59760216   0.35443329   2.16997070
H   -4.57844533   0.02592702   1.81568903
H   -3.73473703   0.84967627   3.14398598
H   -2.97178168  -0.53928411   2.31962118
