42
Energy:   -221.16994706
O    2.79210109  -0.41053876   0.55721580
H    2.55888699   0.31538681   1.15476623
C    3.89396233  -1.09940860   1.12633258
H    4.14355928  -1.91364624   0.44061863
H    3.65911739  -1.53972989   2.10803638
H    4.78421086  -0.46050820   1.23606486
O   -2.60814536  -0.23937068  -2.44031222
H   -2.07258800  -1.04645623  -2.42566616
C   -3.95899841  -0.62279086  -2.64210122
H   -4.54823628   0.29812801  -2.65597091
H   -4.34477363  -1.26275150  -1.83314808
H   -4.11494994  -1.14231954  -3.60050948
O    0.63952385  -2.18633435   0.15209323
H    1.42721226  -1.63300708   0.26071719
C   -0.31128541  -1.77677098   1.12201765
H   -1.19203130  -2.41013814   0.98557020
H   -0.62229398  -0.72785816   0.99618880
H    0.04912630  -1.91093800   2.15394786
O    1.88211049   1.59402004   2.28334857
H    0.91963186   1.69112073   2.33462836
C    2.44697686   2.89533196   2.29020696
H    3.53128986   2.76744668   2.23193285
H    2.21808009   3.45341381   3.21157999
H    2.12795888   3.50193216   1.42820867
O   -1.15512514   1.47123404  -0.73173394
H   -1.72686492   0.98973518  -1.34792851
C    0.18012389   1.34238817  -1.19329924
H    0.81062586   1.89043870  -0.48789645
H    0.32821186   1.77849284  -2.19362919
H    0.52307631   0.29613746  -1.21611218
O   -0.89820032   1.86327208   2.02569804
H   -1.03673620   1.78195273   1.07038749
C   -2.17254242   1.98891903   2.63627059
H   -1.99801303   2.07947121   3.71182858
H   -2.81359842   1.10956109   2.46729086
H   -2.71759039   2.88562726   2.30218318
O   -0.90538776  -2.44380716  -2.18324345
H   -0.39214657  -2.46186267  -1.36185392
C   -0.00194084  -2.63786670  -3.25965337
H   -0.59655157  -2.61473927  -4.17692564
H    0.51413079  -3.60954276  -3.21176761
H    0.75808281  -1.84362421  -3.32538199
