42
Energy:   -218.84384906
O    0.98718639  -2.86367178  -0.42479816
H    0.78548072  -2.16897183  -1.06910405
C    1.71855403  -3.87584695  -1.09795236
H    1.93744657  -4.65025501  -0.35777440
H    2.67524288  -3.51094546  -1.50337890
H    1.14770461  -4.33897622  -1.91796428
O    0.33116811  -0.65792859  -2.03073240
H    0.53565090   0.25785120  -1.78998887
C   -1.08086270  -0.79375308  -2.04668508
H   -1.29363889  -1.83092416  -2.31960933
H   -1.56263409  -0.13943403  -2.79001559
H   -1.53795740  -0.59870229  -1.06393539
O   -1.68653663   2.16367121   0.40558451
H   -2.18738060   1.38658485   0.69492063
C   -1.59396164   3.05120115   1.50842368
H   -1.02697729   3.92077976   1.16513520
H   -1.05907335   2.61120863   2.36462368
H   -2.57843385   3.40122405   1.85638314
O    3.11312839   1.24082412   0.27387791
H    2.31063485   1.52767535  -0.18671276
C    3.50543756  -0.00483740  -0.28015698
H    4.41058494  -0.31333183   0.24996057
H    3.74461814   0.06335519  -1.35296626
H    2.74516805  -0.78963894  -0.14284657
O    0.69224397   1.96999932  -1.03181462
H   -0.13469246   2.12557264  -0.55181842
C    0.96712265   3.12886313  -1.80253515
H    1.90160111   2.93657572  -2.33663324
H    1.10698655   4.02840163  -1.18282077
H    0.18462591   3.33897633  -2.54840955
O   -0.35636818  -1.60552955   1.73072286
H    0.11870633  -2.15954933   1.09370672
C    0.48315367  -0.50996326   2.05855107
H   -0.06728379   0.10369731   2.77682993
H    0.72295502   0.11795306   1.18620152
H    1.42721376  -0.82402104   2.53066928
O   -2.78032276  -0.24898434   1.34805272
H   -1.98862757  -0.77199782   1.54324210
C   -3.91052460  -1.03308908   1.69497828
H   -4.79337405  -0.42901580   1.46879801
H   -3.93761348  -1.28972247   2.76557756
H   -3.97635176  -1.96532442   1.11241379
