28
Energy:   -896.12463162
O   -2.20206372   1.57063213  -0.34952826
H   -1.68218375   1.19082750  -1.05783971
H   -1.91821986   1.10115880   0.43485640
O    1.18794833  -3.00754761   0.16105368
H    0.43724702  -2.42429872   0.27285764
H    1.94568282  -2.47053859   0.39276812
O   -3.26035527  -1.02409483  -0.32699232
H   -2.37341507  -1.24339253  -0.04154976
H   -3.27507049  -0.06730825  -0.35096614
O   -0.04476977   2.32053588   2.87823397
H   -0.31375301   1.43109928   2.64848975
H    0.27325282   2.69484598   2.05665900
O    2.99029573  -0.91416377   0.09001553
H    2.69702592  -1.08148308  -0.80565679
H    2.23269607  -0.51803884   0.52054967
O    0.36032673   2.52253441   0.11022150
H   -0.59102788   2.48350989   0.01207188
H    0.59903615   1.67063335   0.47561750
O   -0.10490018   0.47238005  -1.75027802
H    0.33433566   1.20573010  -1.31957925
H   -0.30513536  -0.13780028  -1.04047687
O    1.59666929  -1.64591541  -2.18120676
H    1.03265352  -0.87647976  -2.10318857
H    1.32899500  -2.21393272  -1.45875354
C   -0.27002740  -0.57018603   1.22146380
O   -1.27246602   0.24451776   1.67789883
O    0.83937306   0.18370283   0.94221304
O   -0.68539854  -1.21123401   0.08378875
