28
Energy:   -897.21253521
O    3.05946074   1.74431353  -0.46316782
H    2.14879518   1.81084851  -0.17595155
H    3.13614214   0.85716037  -0.81432459
O    1.52394393  -0.65056439   2.00726709
H    1.39629654  -0.47411185   1.07517133
H    1.03567842   0.04243116   2.45177335
O    0.00601073  -2.66722963  -0.56819899
H    0.43308048  -1.82242138  -0.71012256
H   -0.55595284  -2.52703248   0.19388601
O   -1.06623985  -1.42305879   1.64305163
H   -0.13126977  -1.41040036   1.84775280
H   -1.16608054  -0.78410393   0.93736022
O   -1.73864696  -1.25383900  -2.14120075
H   -1.55914718  -0.50801445  -1.56869972
H   -1.20403110  -1.96363649  -1.78538443
O    0.73576365  -0.51883866  -3.14001037
H   -0.19096719  -0.75596538  -3.10576560
H    0.93745838  -0.21075240  -2.25647545
O   -0.50221609   1.06372023   2.74486109
H   -0.97368879   0.25339978   2.55166144
H   -0.21174955   1.38199223   1.89013074
O   -2.17863400   2.78433600  -0.02251670
H   -1.38409202   3.28472736   0.16334180
H   -1.87562086   1.88215343  -0.12489589
C    0.11025601   0.81113702  -0.49787447
O    0.52018530   1.73771135   0.42428407
O   -1.14531792   0.36898905  -0.17362447
O    0.98117533  -0.24682117  -0.49992761
