28
Energy:   -895.66614838
O   -3.21651820  -0.64892836   1.20640040
H   -3.14020690   0.30507158   1.22350460
H   -2.45641348  -0.94150622   0.70353773
O    2.30065728  -2.47042842   0.69217844
H    2.76065918  -1.63129639   0.71425912
H    1.41050101  -2.24901161   0.41863091
O   -1.02314194  -0.11797354  -3.15751846
H   -1.18102477  -0.05072889  -2.21582689
H   -0.07648467  -0.23707873  -3.23423747
O   -2.07311339   1.83728388   1.29767841
H   -1.66354680   1.39037558   0.55689501
H   -1.66950066   1.44111380   2.06993348
O    2.77745224   0.23135859   0.16594689
H    1.91818431   0.09410287   0.56475930
H    2.65792985  -0.01319077  -0.75173598
O    1.65528520  -0.15230618  -2.34914608
H    1.13453764  -0.71880976  -1.77982410
H    1.41277676   0.73663650  -2.08991181
O    0.95254393   2.04902160  -0.93254492
H    0.20859577   1.46854407  -0.77186260
H    1.64689910   1.71149317  -0.36670281
O   -1.19223313  -0.10418988   3.06932470
H   -1.97470177  -0.46115419   2.64914478
H   -0.52188377  -0.12621653   2.38640567
C   -0.45710062  -0.64246274   0.14992448
O    0.19822712  -1.50909383  -0.68461401
O   -1.01467104   0.36823476  -0.58811655
O    0.43198805  -0.11493730   1.04937901
