28
Energy:   -903.95617543
O    0.14236317   2.59462474  -1.44135640
H   -0.71943227   2.17871717  -1.41766348
H    0.75113323   1.89980895  -1.19063367
O    0.31330065   2.67964394   1.30045121
H    0.24848106   1.72473965   1.28673776
H    0.27466064   2.93606339   0.37904584
O    2.91663922   2.06754109   0.56083387
H    2.55330270   1.29662586   0.12504936
H    2.17687665   2.44525266   1.03656191
O    0.55015190  -2.59097544   2.56946240
H    0.93268471  -2.16241644   1.80380081
H   -0.35649322  -2.28457336   2.58801580
O   -1.87519545  -1.48277618   1.89194872
H   -1.22922890  -0.81572874   1.65955512
H   -1.94841692  -2.02892545   1.10926651
O    0.20971084  -0.94052549  -2.69150567
H   -0.26126650  -1.63869863  -2.23657000
H    0.72038377  -0.50945328  -2.00621613
O   -1.44382762  -2.20295299  -0.78115824
H   -1.79440828  -1.32335700  -0.92128653
H   -0.57975554  -2.05829101  -0.39556233
O   -1.65335765   0.48896251  -1.28040363
H   -1.07311624   0.17924498  -1.97583645
H   -1.12648727   0.42847903  -0.48354655
C    1.00877646  -0.28917904   0.36398356
O    0.92830410  -1.62937425   0.09129443
O   -0.20354674   0.15747273   0.81991496
O    1.34605896   0.38934836  -0.77777880
