28
Energy:   -899.47734592
O    2.37803551  -0.82845099  -1.38794456
H    1.48453875  -0.48523303  -1.37810485
H    2.73350568  -0.59695805  -0.52987473
O   -0.90869464   1.06574968   2.45090191
H   -0.58251962   0.35060291   1.90463568
H   -1.48540120   1.56538576   1.87297009
O    1.07394655  -2.96400472   0.03448778
H    0.59151059  -2.21575357   0.38606652
H    1.60848480  -2.59580624  -0.66902525
O    0.83056540   2.37316757   0.76087556
H    0.42287150   2.00332872   1.54396992
H    0.64188554   1.73854486   0.06958273
O   -1.92435793   2.40622273   0.29346725
H   -1.89644614   1.49372594   0.00571321
H   -1.00941610   2.68745336   0.28871101
O   -1.51146762   0.82707188  -2.99132832
H   -2.26354933   0.37787692  -2.60554490
H   -0.83490380   0.78617599  -2.31544314
O   -1.79240327  -3.04919900  -0.14085249
H   -0.86658014  -3.29197790  -0.15275947
H   -1.78933409  -2.09216631  -0.12322115
O    2.51184067   0.18082973   1.19555395
H    2.31557282   1.09914461   1.01005851
H    1.67928924  -0.27340704   1.06609772
C   -0.45774385  -0.43602850  -0.39858904
O   -1.79346850  -0.16867809  -0.25256919
O    0.09660613  -0.67707310   0.83091997
O    0.16254907   0.64045776  -0.97668438
