28
Energy:   -897.94084069
O   -0.13881786  -2.85077238  -0.25561430
H    0.14760007  -2.20360958   0.38888312
H   -0.66607208  -2.35137854  -0.87918517
O   -2.25523735  -2.13308398   1.42256022
H   -1.63988597  -2.71816850   0.98068849
H   -1.90107012  -1.25621532   1.27457786
O    1.67642476  -1.27321995  -1.63780472
H    1.42202659  -0.51743521  -1.10836837
H    1.25236374  -2.01822954  -1.21193524
O    3.20151219  -1.09633385   0.69577888
H    2.36587280  -0.82851720   1.07815684
H    3.02635522  -1.16010487  -0.24309552
O   -0.49115029   2.60449041  -1.28275277
H    0.00436069   1.83344680  -1.00672293
H   -1.25358469   2.61955196  -0.70422120
O   -1.91959624   2.50021424   1.10146195
H   -1.73883074   1.57758933   0.92168719
H   -1.06557203   2.87430985   1.31808828
O    0.80154747   3.15391820   1.07736487
H    0.87416760   2.20223923   1.14992731
H    0.50837505   3.30440457   0.17867937
O   -1.09324499  -0.91325509  -1.90182244
H   -0.16066708  -0.86853066  -2.11284380
H   -1.16584450  -0.49282459  -1.04496810
C    0.10989810   0.24153969   0.87500316
O    0.60354332  -0.94619440   1.34676634
O   -1.19538694   0.07415145   0.49380644
O    0.85229014   0.64844577  -0.20252258
