28
Energy:   -895.46504863
O    2.01091680  -0.93776024   2.04030845
H    2.25454384  -1.06522743   1.12344978
H    1.09005911  -0.67826132   2.01008823
O   -0.59752116  -1.58663033  -3.37918129
H   -0.78310419  -0.80013178  -2.86614054
H    0.03149449  -2.07607571  -2.84907340
O   -1.57930244   3.06869329  -0.06855798
H   -2.30118594   2.45165307   0.05134790
H   -0.81689137   2.51578709  -0.23960168
O   -0.62400057  -0.16441121   1.86076159
H   -0.92642907  -0.98284247   1.46713851
H   -0.26874217   0.33772184   1.12735467
O    2.93797848  -0.76500656  -0.55979409
H    3.05928868   0.12748608  -0.23579939
H    2.00483854  -0.82083862  -0.76562047
O   -2.79168902   0.57848631   0.30258178
H   -2.21493474   0.57134328  -0.46131306
H   -2.19905496   0.51259035   1.05136375
O    2.61828798   1.52337949   0.92780075
H    1.80244182   1.51864296   0.42719667
H    2.52760784   0.79430170   1.54135966
O   -1.74941470  -1.99944577   0.17176636
H   -2.37440582  -1.27646068   0.11781722
H   -0.95930746  -1.66588254  -0.25331947
C    0.14999757   0.35925656  -1.15816983
O   -1.11709240   0.44481216  -1.67209747
O    0.38681578  -0.92335020  -0.73872281
O    0.27066541   1.21712828  -0.09643747
