28
Energy:   -896.54904699
O   -0.92024985  -2.36118753   2.16591860
H   -0.87060471  -2.80690929   1.32028314
H   -0.75353957  -1.44087878   1.96227350
O    2.03997103   2.19401412  -0.24222930
H    1.88589260   2.06215996  -1.17770039
H    1.72697288   1.38805042   0.16848535
O   -0.10054594  -3.13382843  -0.33740524
H   -0.41292907  -2.23472056  -0.43866563
H    0.72827506  -3.04829735   0.13373384
O   -0.16435777   2.80317007   1.39841489
H    0.56923665   2.88007305   0.78836816
H   -0.27152289   1.86076033   1.52729994
O   -2.37137636   1.78198879  -0.04391702
H   -1.73798697   2.34445163   0.40182424
H   -1.96928134   0.91338964  -0.03459262
O    1.76447738  -2.33414283   1.54019118
H    0.93920477  -2.40269075   2.02025174
H    1.64709673  -1.57567917   0.96818900
O   -1.51721590   0.66662551  -2.48685996
H   -1.90690798   1.36722219  -1.96385305
H   -1.19699133   0.03563557  -1.84223622
O    1.24566855   0.68344409  -2.48142913
H    0.31145939   0.78443481  -2.66387354
H    1.27804631   0.23298345  -1.63746898
C   -0.00799574   0.08642263   0.22193376
O   -0.18716694   0.10112008   1.58010902
O   -0.96227307  -0.70899051  -0.35579584
O    1.23652193  -0.40795869  -0.06882918
