28
Energy:   -895.95806220
O   -0.37334471  -2.79909357  -1.10799508
H    0.17286766  -2.15444766  -0.65820008
H   -1.13881028  -2.30364236  -1.39923793
O   -1.86945377  -2.14599381   1.12284353
H   -1.29554631  -2.65637336   0.55155133
H   -1.41321882  -1.31252704   1.23866518
O    1.86535200   0.83743537  -1.64572910
H    1.71831945   1.66145717  -1.18140018
H    1.62173427   0.15982395  -1.01507467
O    3.34235226  -1.29623616   1.10706608
H    3.37608768  -0.51142859   1.65403121
H    2.46710760  -1.28142872   0.71982020
O   -0.86195151   0.97051040  -1.42882055
H    0.00638561   0.78828541  -1.78800930
H   -0.81359515   0.67164894  -0.52075924
O   -1.13094735   2.56849796   2.02430920
H   -1.00237848   1.63541534   1.85384301
H   -0.51996085   3.00704981   1.43219466
O    0.68334095   2.81937942  -0.08826707
H    0.94980720   2.12493658   0.51420843
H   -0.02798608   2.43362760  -0.59958031
O   -2.58149432  -1.16377890  -1.33601542
H   -2.01098913  -0.40416511  -1.45324405
H   -2.47450654  -1.40452673  -0.41578396
C    0.52406985  -0.25194566   1.15690094
O    1.35033736   0.81474470   1.39441317
O    0.93491610  -0.90427499   0.02430631
O   -0.76022012   0.19466902   0.98685747
