28
Energy:   -895.67990272
O   -0.08111566  -0.12829208   2.92311242
H    0.23925325   0.76005497   2.76679499
H    0.25922468  -0.63888847   2.18847536
O    0.51245161   2.24832538   1.52210300
H   -0.35403803   1.98823906   1.20940082
H    1.08970734   1.53460714   1.25078411
O    0.97161458   2.52221658  -1.23029933
H    0.81182609   1.57844967  -1.23217142
H    0.96245837   2.76533349  -0.30453360
O   -1.58495569   0.63235833   0.74571915
H   -0.85840863   0.41152745   0.16297140
H   -1.34279479   0.24708048   1.58783015
O   -2.73779148  -0.99466494  -1.15030352
H   -2.41799140  -0.42539747  -0.45037902
H   -1.97084056  -1.15193719  -1.70101540
O   -1.42417554  -3.19559051  -0.14154412
H   -2.06718762  -2.53371516  -0.39588313
H   -0.68578523  -2.69305086   0.20264405
O   -0.45484810  -1.89164921  -2.38729184
H   -0.01480928  -1.20536231  -1.88568644
H   -0.61791464  -2.58733563  -1.75037618
O    3.46770544   1.42267062  -0.78417169
H    2.77502864   1.94935467  -1.18296312
H    3.00278694   0.78718988  -0.23988605
C    1.14289106  -0.66459322  -0.03250351
O    0.39637763  -1.53968211   0.71173806
O    1.80662184   0.19457369   0.80319527
O    0.31729490   0.04971756  -0.86071322
