28
Energy:   -898.93561908
O    0.79109097   0.35763049  -2.07575422
H    0.75575446   0.60209174  -1.15097215
H    0.01880036  -0.19211460  -2.20834160
O   -3.04986434  -1.40002002   1.46573457
H   -2.09825897  -1.33821848   1.38291167
H   -3.37940948  -0.60545745   1.04585105
O    1.23800135  -1.97556014  -0.61832951
H    0.64397004  -1.65498503   0.06033849
H    1.38012891  -1.22041465  -1.18910695
O    1.15437252  -1.20713445   3.07251050
H    0.41760633  -1.06694083   2.47773897
H    1.91559723  -0.88067228   2.59272801
O   -1.25647690  -1.40491662  -1.75178251
H   -1.42782166  -0.76986582  -1.05638097
H   -0.53725875  -1.94003968  -1.41622266
O    0.21515321   3.41864527   0.26320864
H    0.33068398   2.51372010   0.55302741
H   -0.28976364   3.34856125  -0.54696360
O    2.80637273  -0.36419687   1.04910114
H    2.56454695  -1.17573608   0.60283190
H    2.03601553   0.19702426   0.96071288
O   -1.11937748   2.38496217  -1.91344784
H   -1.39873267   1.88210786  -1.14837917
H   -0.33283433   1.93518700  -2.22212892
C   -0.58553004   0.32801600   0.88007724
O   -1.57372946   0.61567866  -0.02417410
O    0.60622618   0.83184065   0.42954798
O   -0.48170497  -1.03057724   1.02576514
