28
Energy:   -899.49230829
O    2.54566505  -1.11896314   0.19751608
H    2.31722718  -0.98656545   1.11758066
H    1.88747320  -0.62094192  -0.28724180
O    0.45291435  -2.78791587  -0.54124860
H    1.34529970  -2.48096916  -0.38104888
H   -0.10479516  -2.06544076  -0.25276696
O    0.59593009  -1.12289687  -2.88488939
H    0.58201315  -0.44822491  -2.20602570
H    0.42410409  -1.93922354  -2.41550848
O    1.21900985   0.12307376   2.32351148
H    0.54403674  -0.24841789   1.75549995
H    1.53354397   0.89341126   1.85035160
O   -1.40016988   0.93033771  -3.11436953
H   -0.81884468   0.19325704  -3.30146564
H   -1.34391737   1.04557995  -2.16579864
O    1.31833450   2.38086961   0.74778008
H    0.52666671   2.50373264   1.27161081
H    1.08402227   1.70271342   0.11419204
O   -3.21871331  -0.68018591   1.04942042
H   -2.26804732  -0.76477222   0.97654258
H   -3.43259711   0.08797325   0.51987620
O   -0.92177784   1.91744031   2.24794560
H   -0.31946414   1.25166836   2.57990609
H   -1.16181063   1.60955343   1.37397662
C   -0.61921904   0.04204205  -0.41654494
O   -1.36322066   1.17929297  -0.24310815
O   -0.60967421  -0.67924706   0.74825105
O    0.66441916   0.38347767  -0.75340528
