7
Energy:    -39.42488459
C   -0.15949302   0.00298111   0.04842213
H   -0.71287717   0.81845625  -0.36831095
H   -0.62310296  -0.92089106  -0.22802882
H    0.84308200   0.02462822  -0.32477195
C   -0.13874030   0.12783638   1.58321218
N   -0.12328895   0.22079681   2.72593313
Cl   0.91442040  -0.27380772  -3.43645573
