7
Energy:    -40.08674297
C   -0.00323796  -0.04207498   0.13550396
H    0.72926878   0.17189672  -0.61452950
H    0.40587880   0.16362611   1.10256633
H   -0.86640049   0.56978461  -0.02411239
C   -0.40401430  -1.52671311   0.05287263
N   -0.70241050  -2.63209369  -0.00865016
Cl   0.84091567   3.29557434  -0.64365086
