7
Energy:    -39.74535479
C    0.06633917   0.10801958  -0.10777602
H    1.10343227   0.34444271  -0.22371647
H   -0.04830188  -0.62538041   0.66286071
H   -0.47353091   0.99261615   0.15854765
C   -0.48429384  -0.44986402  -1.43335859
N   -0.89426515  -0.86523373  -2.42031508
Cl   0.73062034   0.49539972   3.36375780
