7
Energy:    -40.43328610
C   -0.01731847   0.02666833   0.05383840
H    1.02252804   0.21720218  -0.11143793
H   -0.58728206   0.88567501  -0.23277655
H   -0.32297014  -0.81556746  -0.53106758
C   -0.25368912  -0.27169604   1.54605408
N   -0.42967781  -0.49384187   2.65707648
Cl   0.58840955   0.45155986  -3.38168690
