7
Energy:    -39.80380191
C    0.10491498   0.11492430   0.02154972
H   -0.15136801   1.02572895   0.52120371
H   -0.74812012  -0.53053506  -0.00319768
H    0.41679172   0.33235556  -0.97862808
C    1.25263644  -0.57991425   0.77754895
N    2.10716723  -1.09725314   1.34042474
Cl  -2.98202223   0.73469364  -1.67890135
