7
Energy:    -39.61823748
C    0.07261651  -0.15310327  -0.04225466
H    0.48697867  -0.57814182   0.84799610
H   -0.18974600   0.86830320   0.13883598
H    0.79487952  -0.20151190  -0.83022156
C   -1.18567044  -0.94175645  -0.45010283
N   -2.12252226  -1.52894459  -0.75376433
Cl   2.14346400   2.53515483   1.08951129
