7
Energy:    -39.71389904
C   -0.01996939  -0.10703938  -0.01054562
H   -0.44408071   0.47700716   0.77934007
H   -0.80455996  -0.52190899  -0.60820769
H    0.60167328   0.51512258  -0.61995023
C    0.82495853  -1.24597786   0.58988419
N    1.45404576  -2.09396933   1.03693148
Cl  -1.61206752   2.97676582  -1.16745221
