7
Energy:    -39.49011019
C    0.11972603   0.07882955  -0.11096071
H    0.89023783   0.79954416   0.06731490
H   -0.30174877  -0.23098627   0.82245894
H   -0.64398276   0.51630139  -0.71945589
C    0.71654446  -1.14219213  -0.83519397
N    1.16090290  -2.05129828  -1.37441855
Cl  -1.94167970   2.02980157   2.15025528
