7
Energy:    -39.19394395
C   -0.23205564   0.02087084   0.10561797
H    0.21439552   0.79717826  -0.47998287
H    0.48080646  -0.34626063   0.81409606
H   -1.08285558   0.41015954   0.62474498
C   -0.67608498  -1.12832339  -0.81838991
N   -1.00668500  -1.98395074  -1.50635577
Cl   2.30247922   2.23032612   1.26026954
