7
Energy:    -39.74902425
C    0.09254930  -0.13980791  -0.00206761
H   -0.70783132   0.53773915  -0.21471996
H   -0.02741310  -1.02814981  -0.58632508
H    1.02601658   0.32342611  -0.24486829
C    0.07366015  -0.50313228   1.49434096
N    0.05959631  -0.77364379   2.60848516
Cl  -0.51657792   1.58356853  -3.05484518
