7
Energy:    -39.77359797
C    0.06654793   0.14023199  -0.03320194
H   -0.50739904   0.90715472  -0.50997713
H   -0.54242348  -0.72913571   0.10190069
H    0.90962478  -0.10629977  -0.64421963
C    0.55566656   0.64249849   1.33796228
N    0.91983762   1.01645872   2.35885637
Cl  -1.40185436  -1.87090844  -2.61132063
