7
Energy:    -39.24683768
C    0.13057796   0.15294472   0.02428904
H    1.15675500  -0.11277584  -0.12149656
H   -0.08252757   1.05732059  -0.50636095
H   -0.49679490  -0.63226314  -0.34279543
C   -0.13668977   0.36387120   1.52618050
N   -0.33568274   0.52091555   2.64440697
Cl  -0.23563798  -1.35001307  -3.22422357
