7
Energy:    -40.16453678
C    0.11096036  -0.00797550   0.06885351
H    1.09133098   0.41240478   0.15284181
H   -0.60420349   0.77757601  -0.05900805
H    0.07526019  -0.66378339  -0.77585982
C   -0.21935818  -0.79974410   1.34775622
N   -0.46529535  -1.38925182   2.29995742
Cl   0.01130550   1.67077402  -3.03454109
