7
Energy:    -40.13326678
C   -0.10082016  -0.03322503  -0.02010481
H   -0.65233963   0.63899740   0.60346833
H    0.94729395   0.10915548   0.14139964
H   -0.36512888  -1.04160427   0.22116536
C   -0.43513884   0.24566849  -1.49728097
N   -0.68405429   0.45331740  -2.59710577
Cl   1.29018784  -0.37230946   3.14845822
