7
Energy:    -39.68022642
C   -0.13831698  -0.07840350  -0.04335748
H   -0.23700953   0.11768311  -1.09059671
H   -0.24202069  -1.12845604   0.13422150
H    0.82472607   0.24649583   0.29113856
C   -1.23308169   0.68305825   0.72688030
N   -2.04818378   1.25000113   1.30035733
Cl   3.07388660  -1.09037878  -1.31864349
