7
Energy:    -39.52848046
C   -0.01107391   0.07217887   0.03535382
H   -0.49459540   0.23837103  -0.90458624
H   -0.23206125  -0.91629998   0.38027882
H    1.04677871   0.18021949  -0.08370147
C   -0.51962571   1.10016111   1.06308315
N   -0.89826565   1.86554061   1.82827435
Cl   1.10884321  -2.54017113  -2.31870244
