7
Energy:    -39.50798513
C    0.11153881   0.15066746   0.10110676
H    1.02185020   0.59139233   0.45038450
H   -0.10091352   0.50560953  -0.88569577
H    0.21494988  -0.91416197   0.08257251
C   -1.04169326   0.53806094   1.04534301
N   -1.90032696   0.82649299   1.74836981
Cl   1.69459486  -1.69806128  -2.54208082
