7
Energy:    -39.90052523
C    0.03886914  -0.05713882   0.06359992
H    0.92147539   0.44588710  -0.27236336
H   -0.21139155   0.28049428   1.04760834
H   -0.76973600   0.15741072  -0.60350226
C    0.29255164  -1.57585305   0.09102784
N    0.48142979  -2.70660482   0.11144917
Cl  -0.75319840   3.45580461  -0.43781965
