7
Energy:    -39.68306114
C   -0.16616645   0.04013655  -0.02392598
H   -0.85566808   0.63943390   0.53314706
H    0.81457255   0.14646972   0.39049333
H   -0.46485711  -0.98614420   0.02537726
C   -0.15543927   0.50163401  -1.49311113
N   -0.14745240   0.84523984  -2.58698626
Cl   0.97501077  -1.18676982   3.15500573
