7
Energy:    -39.77649073
C    0.07161275  -0.08596225  -0.05379297
H    1.08455808  -0.11917679   0.28933781
H   -0.47039197  -0.91354883   0.35392070
H   -0.38273471   0.82922698   0.26384858
C    0.04773098  -0.16424062  -1.59161680
N    0.02994992  -0.22252243  -2.73659655
Cl  -0.38072504   0.67622395   3.47489923
