7
Energy:    -40.31089107
C    0.04747640  -0.05736116  -0.02935398
H    0.46751574   0.13681778  -0.99411388
H    0.12497509   0.82100568   0.57675224
H   -0.98242022  -0.32706450  -0.13646215
C    0.81367616  -1.21285615   0.64099611
N    1.38414671  -2.07317470   1.14010222
Cl  -1.85536989   2.71263305  -1.19792056
