7
Energy:    -39.75782429
C    0.01383545  -0.10637278   0.03704698
H   -0.08853264   0.95681475  -0.02661812
H   -0.53635053  -0.56586898  -0.75734443
H    1.04737285  -0.37075151  -0.04543593
C   -0.53449671  -0.59473013   1.39072306
N   -0.94275493  -0.95833437   2.39859644
Cl   1.04092651   1.63924302  -2.99696799
