7
Energy:    -39.85906458
C   -0.09108095  -0.06037432  -0.06753681
H   -0.55154155  -0.22568187   0.88406690
H    0.86776099   0.39289581   0.07412275
H    0.02778939  -0.99564850  -0.57353201
C   -0.97946351   0.87127215  -0.91276535
N   -1.64090470   1.56492530  -1.54207641
Cl   2.36744032  -1.54738856   2.13772093
