7
Energy:    -39.83986233
C    0.06885712   0.12101302  -0.12285071
H    0.73074330  -0.52705607   0.41269883
H   -0.75438895   0.38877260   0.50601318
H    0.59545540   1.00489905  -0.41668542
C   -0.45681405  -0.60376201  -1.37583554
N   -0.84820013  -1.14338997  -2.30873969
Cl   0.66434731   0.75952339   3.30539935
