7
Energy:    -39.54021336
C    0.15373327  -0.02273854   0.11610617
H   -0.38741419   0.45708404   0.90466808
H    0.75521176  -0.80855753   0.52305978
H   -0.53601316  -0.43186717  -0.59224595
C    1.05962253   1.00650875  -0.58504621
N    1.73409826   1.77283014  -1.10708603
Cl  -2.77923848  -1.97325969   0.74054417
