7
Energy:    -39.94293069
C   -0.04764376  -0.05313555   0.08218029
H   -1.06310015  -0.37743707  -0.01043193
H    0.40753488  -0.02518558  -0.88577131
H   -0.02366661   0.92469864   0.51595959
C    0.72422956  -1.03396285   0.98428304
N    1.29892433  -1.76423336   1.65593955
Cl  -1.29627824   2.32925578  -2.34215923
