7
Energy:    -40.36655331
C   -0.00410174   0.05848273  -0.06131740
H   -0.56592295   0.21733121   0.83535660
H    0.49868473  -0.88434248  -0.00487736
H   -0.66608651   0.05991502  -0.90195596
C    1.03362925   1.18476377  -0.22319829
N    1.80626714   2.02333120  -0.34372597
Cl  -2.10246991  -2.65948146   0.69971839
