7
Energy:    -40.08244227
C   -0.13760169   0.01540747  -0.04935381
H    0.60432524  -0.67791386  -0.38662245
H   -1.10844794  -0.42203441  -0.15424068
H    0.03741095   0.25279005   0.97919817
C   -0.06001625   1.30121005  -0.89332788
N   -0.00225036   2.25854851  -1.52170494
Cl   0.66658006  -2.72800782   2.02605160
