7
Energy:    -39.89749324
C   -0.00777014  -0.11308565  -0.08998609
H   -0.30574440   0.45695627  -0.94506721
H    0.81858182  -0.74102182  -0.35025077
H    0.28269969   0.55052811   0.69750559
C   -1.18630054  -0.98487051   0.38187961
N   -2.06377000  -1.63395396   0.73320507
Cl   2.46230357   2.46544756  -0.42728619
