7
Energy:    -39.61422864
C    0.02228427   0.17257123   0.01243346
H   -0.61363087   0.80673119  -0.56924794
H   -0.02397401   0.46700163   1.04008613
H   -0.30270715  -0.84242573  -0.08275495
C    1.47185133   0.29693236  -0.49243252
N    2.55111989   0.38952488  -0.86832818
Cl  -3.10494346  -1.29033556   0.96024401
