7
Energy:    -39.38202518
C   -0.05512806  -0.11356988   0.17032173
H   -0.83340793  -0.70094745   0.61096695
H   -0.32414576   0.13917904  -0.83399224
H    0.08120745   0.78232168   0.73925935
C    1.25597868  -0.92137036   0.16273846
N    2.23215724  -1.52281454   0.15709237
Cl  -2.35666162   2.33720152  -1.00638662
