7
Energy:    -40.28669436
C    0.04086496   0.08824659  -0.00366362
H   -0.12193233   0.87364275   0.70453840
H    0.84138312  -0.53626366   0.33405922
H   -0.85064531  -0.49555059  -0.10004505
C    0.40613262   0.69692376  -1.37029877
N    0.67809100   1.15011159  -2.38782076
Cl  -0.99389405  -1.77711044   2.82323057
