7
Energy:    -40.24894491
C   -0.03074575   0.09760479   0.00266582
H   -0.71676030   0.23100031   0.81290644
H    0.40636797  -0.87721910   0.06223996
H   -0.55200039   0.19858980  -0.92630927
C    1.07770436   1.16329159   0.08781264
N    1.90299586   1.95674385   0.15120831
Cl  -2.08756175  -2.77001125  -0.19052391
