13
Energy:   -245.71495116
O   -1.91393568  -0.42783236  -0.62155082
H   -2.68343086  -0.35375798  -0.05708470
H   -2.24133544  -0.23509260  -1.50012502
O    0.20319293   1.34298368   0.17268587
H    0.11714961   2.29489403   0.22460012
H   -0.65754624   1.03960273  -0.11596605
O    0.48956932  -0.74052737   2.00024840
H    0.74590470  -0.60105146   2.91187908
H    0.49904761   0.13424207   1.61176362
O    1.55355346  -0.45494856  -1.47260479
H    2.26730693  -0.19269889  -2.05399360
H    1.30508934   0.35058792  -1.01916415
K    0.15107965  -2.25977675  -0.13954180
