13
Energy:   -238.34825275
O    0.10690500  -0.79157815  -3.14275416
H   -0.30527483  -0.28309937  -3.84117307
H    0.20445527  -1.66979344  -3.51079452
O    1.41556338  -1.93524085   1.13352680
H    2.11512463  -2.58297924   1.04819867
H    1.11639792  -2.02291775   2.03853764
O   -2.05194274   1.42711381   0.11896541
H   -2.00560596   2.36770781   0.29033540
H   -2.98695001   1.22400068   0.14613738
O    0.65391127   1.40289656   1.72820191
H   -0.13872062   1.14901247   2.20096972
H    1.30126255   1.56464217   2.41450106
K    0.57181633   0.10590511  -0.60479212
