13
Energy:   -233.62992023
O    0.58610993   1.45977280   3.17346299
H    0.60363069   2.08407133   3.89884303
H    0.33390506   0.62947053   3.57747129
O    1.01204905   1.59782067  -2.00181746
H    1.08394861   1.77080740  -2.94050692
H    0.34895476   0.91079391  -1.93449696
O   -0.80635616  -0.03625033  -0.75477068
H   -0.68856594  -0.97556565  -0.61319371
H   -1.62455353   0.03152882  -1.24689961
O   -0.55877815  -2.74680506  -0.44253200
H   -1.40075572  -3.17174966  -0.27904592
H   -0.05266604  -3.39663766  -0.93017940
K    1.16843064   1.90953071   0.57266435
