13
Energy:   -248.70085097
O   -0.37660241  -0.05798642  -3.99419811
H    0.17244818  -0.50258876  -4.64003405
H   -1.03539532   0.40148324  -4.51488168
O    1.56657839   1.33374126  -0.06925508
H    2.20765049   1.98452840  -0.35514758
H    1.67913978   1.28695561   0.88015151
O   -1.49570654  -1.01208468   0.89792096
H   -0.99270140  -0.79417531   1.68260763
H   -2.24632155  -1.50843835   1.22417546
O    0.15599539  -0.30830635   3.00420773
H   -0.01603542   0.34142985   3.68573551
H    0.69425829  -0.97190101   3.43565533
K   -0.26118362  -0.18982570  -1.29591053
