13
Energy:   -248.92668325
O    0.01204760  -2.10233123  -1.50438264
H   -0.41662306  -2.17556387  -2.35709027
H    0.31174556  -2.99024586  -1.30939393
O   -1.42592926  -0.44641764   0.24710025
H   -1.03198274  -1.15987243  -0.25491594
H   -2.14374331  -0.85887487   0.72757279
O    1.76767464   0.44493877  -1.32358545
H    2.67148123   0.53956722  -1.62426961
H    1.59785094  -0.49611029  -1.36622835
O   -0.34070287   2.45015711   2.56492986
H   -1.09953286   2.84569468   2.99383420
H    0.18271555   2.09469397   3.28319928
K   -0.10394565   1.87840822  -0.07678047
