13
Energy:   -256.99693148
O    2.06778932   0.85943566  -1.47624531
H    2.90087774   1.21047210  -1.16165200
H    2.14759307   0.87043465  -2.43004939
O   -1.99165432   1.79638867  -0.00412036
H   -2.74630625   1.84200119   0.58295017
H   -2.09588499   2.54785910  -0.58778123
O   -0.80132697  -2.32061579  -1.07999551
H   -0.25903181  -3.04934329  -1.38182995
H   -1.69901588  -2.59712226  -1.26419824
O    0.72519071  -0.33521143   2.56036145
H    0.85771169   0.33689599   3.22889840
H    0.89406354  -1.16118512   3.01366188
K   -0.00000583  -0.00000889  -0.00000005
