13
Energy:   -234.16228508
O    1.27030900   1.89160135  -1.47920937
H    1.04269734   2.82054554  -1.44064177
H    2.22340237   1.88149642  -1.56720237
O    1.05081347  -2.46764590   0.20126865
H    0.84861148  -3.32660785  -0.16958249
H    1.86684577  -2.60055765   0.68361459
O    0.50446535   0.92179232   2.47099905
H    0.72695076   1.69312988   2.99231512
H    0.36081950   0.22939683   3.11612400
O   -2.81130925  -0.30633259  -1.51875892
H   -3.45399616   0.18020543  -1.00255533
H   -3.32652550  -0.96524673  -1.98417938
K   -0.35067765   0.03011774  -0.14025621
