13
Energy:   -237.73253927
O   -0.75084000   1.96054184  -1.99521244
H   -0.69986888   2.86704980  -1.69210006
H   -0.82887914   2.02968068  -2.94671734
O    1.65513637  -1.89205037  -0.58399573
H    1.95146847  -2.11039642   0.29960154
H    2.34110686  -2.23261411  -1.15818444
O   -2.41920880  -1.59088162   0.97326040
H   -2.83796877  -1.46312446   1.82446545
H   -3.12312177  -1.90120901   0.40366818
O    1.48807266   1.42022844   1.39739972
H    2.42769225   1.28063851   1.51513468
H    1.18363225   1.73461481   2.24869820
K   -0.42025819  -0.05266858  -0.19417390
