13
Energy:   -249.36368701
O   -1.73819635   0.26831263  -0.21568804
H   -1.49503772  -0.02547119  -1.09363838
H   -2.65759291   0.52292702  -0.29387588
O   -0.56906824  -0.64651606  -2.68167507
H   -0.38331175  -0.04768302  -3.40494913
H   -0.67818519  -1.50081389  -3.09940772
O    1.87841599   0.04918957  -0.91531683
H    2.66420201   0.38505493  -1.34655532
H    1.33020041  -0.27159865  -1.63140791
O    0.41545299   0.29851281   4.05432746
H    0.30754537   1.12759017   4.52039455
H    0.61191622  -0.33892033   4.74084988
K    0.36206253   0.22117100   1.39308138
