13
Energy:   -234.59529958
O   -0.19921704  -2.85004970   2.22535650
H   -0.38982047  -3.58419533   2.80925065
H    0.57897138  -2.43943030   2.60224684
O    0.73660774  -0.66713051  -1.20868945
H    0.71784132   0.28350900  -1.09839810
H    1.32783106  -0.81138442  -1.94752477
O    0.78706290   2.40344707  -1.07901181
H    1.52871994   2.69697450  -0.54984423
H    0.70298371   3.06726035  -1.76349297
O   -1.63300629   0.85086627   0.03440759
H   -1.34902422   1.44284878   0.73092948
H   -1.49725376   1.34729265  -0.77266363
K   -1.28955191  -1.80083393   0.03687392
