13
Energy:   -256.94113861
O    1.30185588   2.11612055  -0.93495468
H    1.23258651   2.50933914  -1.80490453
H    1.94296118   2.65925029  -0.47645066
O    1.29891126  -2.26545108  -0.43911617
H    2.14349443  -2.35309943  -0.88096331
H    1.05506116  -3.16163733  -0.20755802
O   -2.37253892  -0.14763961  -1.30485471
H   -3.15286265   0.39841417  -1.20918859
H   -2.60488383  -0.78145879  -1.98347164
O   -0.23915655   0.30228934   2.68416788
H    0.24874885  -0.17952848   3.35202396
H   -0.80542632   0.89338014   3.18033526
K   -0.04826026   0.00802747   0.02489814
