13
Energy:   -234.00997135
O   -0.89160789  -1.33915539   2.00122483
H   -1.62707794  -1.21277456   2.60067752
H   -0.42395550  -2.09728509   2.35161384
O    1.36277565   1.43927444  -2.52441334
H    2.26003514   1.76473797  -2.45208942
H    1.12729518   1.58621948  -3.44048536
O   -0.56446124  -2.13773471  -1.18743602
H   -0.73812765  -2.61860749  -0.37821837
H   -0.11917673  -2.77003257  -1.75148652
O    0.06989005   2.18601576   1.48017281
H   -0.19670553   3.05919700   1.76777178
H    0.01315357   1.64598109   2.26844647
K   -0.29244548   0.46601396  -0.68801678
