13
Energy:   -249.08208073
O   -0.39316841   1.96250943  -3.65517928
H   -0.89579136   1.71936824  -4.43266522
H   -0.09093891   2.85304634  -3.83359786
O    0.88729676  -1.90307734  -0.33720458
H    1.12509417  -1.79706152   0.58390610
H    1.09412554  -2.81652547  -0.53485634
O   -0.98200530   0.75141748   1.00591434
H   -1.46098843   1.41263859   1.50550783
H   -0.58914616   0.18609587   1.67097451
O    0.40705992  -0.83679948   2.78467288
H    0.97040828  -0.28702884   3.32930370
H    0.11054792  -1.53231605   3.37167304
K   -0.15607510   0.34055020  -1.52084878
