13
Energy:   -250.94860580
O   -0.37110333   0.00930674  -4.02134078
H   -0.71953482   0.69633192  -4.58951659
H   -0.30091078  -0.75853858  -4.58854305
O    1.84950800   0.20298225   0.45613969
H    1.48370825   0.05285525   1.32785310
H    2.77588589   0.38598609   0.61287338
O   -1.87319428   0.14855209   0.56899728
H   -2.81500981   0.31589785   0.60379316
H   -1.65210691  -0.16241163   1.44686617
O    0.49610173  -0.31522427   2.78333682
H    0.37314876   0.33220650   3.47756144
H    0.74234532  -1.11729985   3.24406526
K   -0.04981377   0.20805737  -1.36021046
