13
Energy:   -234.15707807
O   -1.84675734   1.95488305  -1.39498973
H   -2.57162798   2.04009621  -0.77568921
H   -1.98516697   2.66191997  -2.02520668
O   -0.16710777  -1.13022453  -2.97422176
H   -0.51520492  -0.59950621  -3.69073993
H   -0.29067776  -2.03433773  -3.26325745
O    2.12354996   0.07185584   1.33421219
H    2.82292777   0.50087336   1.82720964
H    1.53804939  -0.27978159   2.00486266
O    0.17947980  -1.04898658   2.90728199
H    0.38897008  -1.82549095   3.42630667
H   -0.32178883  -0.49094809   3.50188662
K    0.54985278   0.29656165  -0.91133619
