61
Energy:   -589.86465090
C    0.69569443   0.91194316  -4.71528443
H    0.48738174  -0.13680363  -4.67483491
H    1.75450651   1.06592377  -4.70498721
H    0.28422564   1.32292732  -5.61344063
C    0.06381740   1.60822889  -3.49564612
N   -0.40664377   2.12664526  -2.58756996
C    0.95818728  -3.15367601  -1.57145921
H    0.44169597  -3.43269417  -2.46604614
H    0.60605353  -3.74976839  -0.75563154
H    2.00833929  -3.31212470  -1.70174302
C    0.69692373  -1.66612069  -1.27059293
N    0.50240114  -0.55856813  -1.04658431
C    4.72682309  -2.51465717   3.05990363
H    4.81246283  -1.55367577   3.52259225
H    5.69739263  -2.85776969   2.76806866
H    4.29721256  -3.20728535   3.75315690
C    3.82498766  -2.40705949   1.81623342
N    3.15353020  -2.32694813   0.89026441
C    0.26948382  -2.00551321   2.77529669
H    0.49034501  -2.62442648   1.93086381
H   -0.53768497  -2.43512796   3.33100237
H    1.13463083  -1.93357686   3.40079242
C   -0.13183719  -0.59994877   2.29060088
N   -0.43063892   0.44655786   1.92972282
C   -1.47252994   6.33440351   0.56259344
H   -2.09167365   6.57600236  -0.27597155
H   -0.54259011   6.85745303   0.48178383
H   -1.96712450   6.62373155   1.46623308
C   -1.20799712   4.81746267   0.58524004
N   -1.01104042   3.68803126   0.60210146
C   -3.07280197  -4.17307421  -1.65798017
H   -3.19566869  -5.19259423  -1.35734271
H   -2.39488872  -4.12413528  -2.48438062
H   -4.02033665  -3.77055576  -1.94962381
C   -2.50791141  -3.35548722  -0.48152356
N   -2.08732471  -2.74675654   0.39440186
C   -3.63985826   0.38987093  -3.57164180
H   -3.21569858   1.31408799  -3.23875808
H   -4.46597592   0.12977611  -2.94332709
H   -3.97895518   0.49608773  -4.58091399
C   -2.57329125  -0.71884342  -3.50245139
N   -1.77918363  -1.54433165  -3.45093599
C   -4.28818348  -0.33814290   1.49329668
H   -4.64475591   0.39790894   2.18321259
H   -3.71841492  -1.07465490   2.02037632
H   -5.12004849  -0.80818436   1.01167366
C   -3.39776119   0.33902890   0.43490804
N   -2.73480132   0.84321408  -0.35311040
C    4.28314987   0.82338997   0.04304382
H    5.02034306   1.45404793  -0.40830628
H    4.19507076  -0.08199875  -0.52034985
H    4.57691425   0.59242410   1.04566855
C    2.92610732   1.55121636   0.06048621
N    1.91572745   2.09311620   0.07347287
C    1.60576701   2.79727709   3.66921922
H    1.04788741   2.99067926   2.77688176
H    2.29464734   3.59805988   3.83977688
H    0.93521914   2.72070186   4.49952091
C    2.38231294   1.47660268   3.51302856
N    2.96048668   0.49330055   3.39673751
Na  -0.41410767   1.52440261  -0.24171785
