61
Energy:   -591.32604354
C    0.89751122  -0.58577168  -4.07853065
H    1.54662276  -0.95113787  -4.84668554
H    0.96819411   0.48075352  -4.02926589
H   -0.11089934  -0.86652443  -4.30030783
C    1.31290345  -1.19084351  -2.72467047
N    1.62218185  -1.64134698  -1.71666003
C   -2.51542530  -0.35948024   2.63909189
H   -3.19999282  -0.66282453   3.40345419
H   -1.89308648   0.42806438   3.00972239
H   -1.90609902  -1.19194575   2.35515218
C   -3.30283822   0.14176217   1.41420948
N   -3.88910293   0.51495993   0.50222884
C   -4.82387694  -1.42051972  -2.06038598
H   -5.00874243  -1.90282465  -1.12331240
H   -5.37123681  -1.91962767  -2.83251778
H   -5.13771750  -0.39914377  -2.00386722
C   -3.31832131  -1.47803677  -2.37912416
N   -2.19736670  -1.52086083  -2.61643922
C    1.76062379   3.69466155   0.04987495
H    1.50504718   2.99689128   0.81974340
H    1.00781286   4.45278579  -0.00862654
H    2.70417267   4.14566837   0.27616562
C    1.85394318   2.95868297  -1.29965349
N    1.92342371   2.41071346  -2.30443875
C   -3.74187287   4.00792096   1.29914782
H   -3.72138960   4.95762901   0.80666915
H   -4.25572122   4.10142641   2.23301917
H   -4.25029437   3.29697673   0.68192422
C   -2.30004651   3.52970075   1.55221336
N   -1.22654124   3.17364407   1.74063215
C    1.32406747   2.25690541   4.00747912
H    2.14612469   2.76849823   3.55207282
H    1.53225707   2.10021288   5.04526697
H    0.43698431   2.84668139   3.90674749
C    1.11801844   0.89727535   3.31426206
N    0.96460557  -0.11503103   2.79813044
C    4.97757052   0.52270655  -1.61486797
H    5.89113102   0.93701378  -1.24250134
H    4.57827557   1.16347785  -2.37307293
H    5.16780078  -0.44511599  -2.02963425
C    3.96362137   0.39712292  -0.46259375
N    3.20869014   0.30362020   0.39532678
C   -1.73509918   1.86934250  -1.94238656
H   -2.72402326   2.00278225  -1.55622185
H   -1.78253838   1.33200554  -2.86646318
H   -1.28505865   2.82575360  -2.10864069
C   -0.89123124   1.07413414  -0.92891207
N   -0.26293320   0.48206536  -0.17433424
C   -1.22644799  -4.53598624  -1.30836244
H   -1.02997633  -4.12235465  -2.27542395
H   -2.26939728  -4.75843245  -1.22076369
H   -0.65842403  -5.43397588  -1.18241610
C   -0.82568213  -3.51871465  -0.22386014
N   -0.52729372  -2.76130971   0.58360112
C    4.24280743  -4.71083273   2.71876842
H    4.66856903  -5.39045988   2.01043646
H    3.62976804  -5.25231817   3.40860559
H    5.02633912  -4.21401505   3.25182507
C    3.38464602  -3.66838762   1.97818271
N    2.74570585  -2.89223986   1.42678299
Na   1.27925779  -1.16177693   0.65420424
