61
Energy:   -589.05083490
C   -5.89338036  -3.55441651  -2.38106219
H   -5.80900681  -4.60839862  -2.21704085
H   -5.95881181  -3.36102127  -3.43140314
H   -6.77318179  -3.18716271  -1.89529148
C   -4.65438424  -2.84438441  -1.80457019
N   -3.73189531  -2.31573323  -1.37534569
C    5.91034562   0.41630365  -0.11750916
H    6.13144790  -0.10483879   0.79046911
H    6.75790301   1.00091753  -0.40866580
H    5.68283242  -0.29039635  -0.88803621
C    4.69972135   1.34207361   0.10371216
N    3.79835655   2.03135142   0.26842149
C    1.73181820   1.09227632  -2.18823650
H    2.61055003   0.49812192  -2.32863270
H    2.01446374   2.09938849  -1.96299074
H    1.14500608   1.07811383  -3.08285935
C    0.90487226   0.51830819  -1.02276621
N    0.28917341   0.09096283  -0.15502060
C    1.83113620  -3.70420554  -3.26097988
H    2.74125876  -3.19718872  -3.01703100
H    1.68047920  -3.67694518  -4.31996922
H    1.89135556  -4.72167636  -2.93536379
C    0.65140055  -3.00876663  -2.55657337
N   -0.22696627  -2.49098076  -2.03211071
C   -2.60610789   2.38334835   2.53679442
H   -2.34294193   1.99893583   3.50005496
H   -3.53180641   2.91552111   2.60588483
H   -1.83844532   3.04588967   2.19527974
C   -2.75741677   1.21711775   1.54250482
N   -2.87007311   0.34880605   0.80221102
C   -2.31540065  -2.83066319   3.75626812
H   -1.55190477  -2.45411940   4.40448799
H   -2.51800346  -3.85268296   3.99983899
H   -3.20628103  -2.25111476   3.88018287
C   -1.84046473  -2.73577661   2.29440889
N   -1.48685335  -2.66512924   1.20598824
C    1.54792266   1.73259970   2.75239974
H    1.39101674   2.63670162   3.30274547
H    1.43042922   1.92662283   1.70671843
H    2.53672635   1.36866733   2.93873165
C    0.51971264   0.67590918   3.19713482
N   -0.24583646  -0.11084495   3.52826030
C    1.96711619  -2.57923210   1.55732139
H    1.48431786  -3.51521305   1.36825628
H    1.23188246  -1.84215580   1.80440232
H    2.65052071  -2.68883708   2.37331410
C    2.73658157  -2.13520806   0.29940021
N    3.30948353  -1.80461198  -0.63717928
C    1.96048601   4.90666667  -0.00251807
H    2.53830802   4.59120734   0.84099087
H    1.74752881   5.95186355   0.08181338
H    2.51315115   4.72662472  -0.90087503
C    0.63992643   4.11551451  -0.04495222
N   -0.34329020   3.52646576  -0.07654638
C   -2.90354340   3.08068485  -2.30773365
H   -2.96042928   3.41289001  -1.29220231
H   -3.87077103   3.14924208  -2.76013801
H   -2.21349484   3.69613527  -2.84620637
C   -2.42273871   1.61809545  -2.34321743
N   -2.06475777   0.52913116  -2.36963672
Na  -1.73904349  -1.19075432  -0.67533234
