61
Energy:   -590.38388496
C    3.28432973  -4.13316629  -1.70565655
H    3.67143615  -3.23467851  -2.13897918
H    2.80041855  -4.71444807  -2.46251885
H    4.08699441  -4.69862020  -1.28034445
C    2.26841730  -3.77587425  -0.60480946
N    1.51202431  -3.50985408   0.21482124
C   -2.01550238  -3.40333924  -0.05172964
H   -2.95326491  -3.91489495   0.01001483
H   -1.23483163  -4.04622016   0.29777916
H   -1.82437369  -3.13040869  -1.06852747
C   -2.06449018  -2.13462718   0.81980344
N   -2.10096382  -1.19001338   1.46869943
C   -1.48930338   4.71532987  -0.50922071
H   -2.41573315   5.09213016  -0.88954898
H   -0.75936058   4.70755066  -1.29153912
H   -1.15008072   5.34211488   0.28888181
C   -1.69473642   3.28211092   0.01545130
N   -1.84769065   2.21501427   0.40609346
C    0.81788802  -1.00522871  -3.06608656
H   -0.06925280  -1.37097160  -3.53949282
H    1.56980203  -1.76634824  -3.08096895
H    1.17272719  -0.14300679  -3.59102618
C    0.50180985  -0.62434356  -1.60779266
N    0.26647528  -0.34075725  -0.52202657
C   -1.90320288   1.66534047  -4.81870610
H   -2.88021554   2.06543337  -4.64471729
H   -1.95168351   0.59646801  -4.82647698
H   -1.53845838   2.01270276  -5.76273999
C   -0.95221685   2.12794189  -3.69923056
N   -0.24416452   2.47236967  -2.86573013
C    3.94704256  -0.68831925   1.47627173
H    4.97397815  -0.58074193   1.75686146
H    3.57548719  -1.62532018   1.83526331
H    3.37530068   0.10915670   1.90293603
C    3.82666566  -0.64233843  -0.05832762
N    3.73703959  -0.60810361  -1.20090659
C   -1.47668827   2.65939426   6.08720159
H   -0.53978883   2.96355263   6.50506199
H   -1.91630417   1.90654555   6.70756904
H   -2.13266649   3.50284225   6.03074670
C   -1.24828614   2.09123735   4.67417994
N   -1.07823037   1.66821870   3.62212109
C    2.68614091   2.80739460  -1.19904087
H    2.69483540   1.96645652  -1.86059037
H    3.69198246   3.08918612  -0.96714560
H    2.18582486   3.62716598  -1.67080123
C    1.94604721   2.43228903   0.09832458
N    1.39501382   2.15300588   1.06427214
C    0.76925516  -3.53200102   3.65100509
H    1.36712993  -3.64473512   4.53119653
H    1.15209711  -4.16327709   2.87652355
H   -0.24149156  -3.80750428   3.86869320
C    0.81247601  -2.06466118   3.18555288
N    0.84465589  -0.97215997   2.83900256
C   -4.47948239   0.49522066  -0.82120070
H   -4.50811837   1.54393803  -1.03160993
H   -4.20045306   0.34395106   0.20064040
H   -5.44625628   0.07033062  -0.99358340
C   -3.44842810  -0.18491042  -1.74095543
N   -2.68076131  -0.69129893  -2.42575463
Na  -0.44681409   0.61777967   1.56281710
