61
Energy:   -593.10054201
C   -0.86165660   3.81153617  -1.45643619
H   -1.92553529   3.71569769  -1.39416817
H   -0.49950390   3.23646107  -2.28289438
H   -0.60388239   4.84038060  -1.59761229
C   -0.22269679   3.29638241  -0.15338326
N    0.25303784   2.91282702   0.81679888
C   -4.55642858  -0.34085332  -3.25426276
H   -5.25199053  -0.91894174  -2.68250447
H   -3.90113290  -0.99705217  -3.78801339
H   -5.08969487   0.27352839  -3.94928885
C   -3.73096896   0.55134886  -2.30864567
N   -3.11637676   1.21563394  -1.60459076
C    2.12904648  -3.84139300   2.32075593
H    1.47867052  -4.69083588   2.30183285
H    2.78342791  -3.91193788   3.16438349
H    2.70812910  -3.81545620   1.42137298
C    1.28983403  -2.55462565   2.42823732
N    0.66500221  -1.59656887   2.50826210
C    3.86991983  -0.93516916  -0.91266162
H    3.76641034  -1.98323739  -0.72361411
H    4.90746912  -0.68985324  -1.00327436
H    3.36357028  -0.68495517  -1.82145322
C    3.25436450  -0.13992562   0.25364852
N    2.79605558   0.45216934   1.12201944
C   -2.16244738  -2.67268881   0.70554639
H   -1.33626400  -3.29406928   0.98160346
H   -3.06416232  -3.07373376   1.11903425
H   -2.00633429  -1.68350889   1.08244276
C   -2.27842477  -2.62484004  -0.82933463
N   -2.36477521  -2.58921445  -1.97212332
C    0.32325151  -4.58443648  -3.09053226
H    1.07365915  -4.64131602  -3.85115916
H   -0.53155079  -4.06529683  -3.47093488
H    0.03833944  -5.57284707  -2.79596698
C    0.88356316  -3.82717177  -1.87225438
N    1.30074065  -3.26335377  -0.96519111
C   -4.23102011   2.01522734   1.49211835
H   -4.61718044   2.55162121   2.33358255
H   -4.93393640   1.26568378   1.19380268
H   -4.06745013   2.69376428   0.68111183
C   -2.89898003   1.34541641   1.87763430
N   -1.90721565   0.84671173   2.16466845
C    1.52866543   2.45549926   6.49290287
H    2.56420584   2.31409297   6.72216366
H    0.93077597   1.90758064   7.19090894
H    1.28805599   3.49612752   6.55692623
C    1.24507247   1.94988411   5.06618343
N    1.03392462   1.57343066   4.00392595
C   -0.05054693  -0.16349949  -3.07521258
H   -0.71405258   0.58860544  -3.44803776
H   -0.38854599  -1.12726848  -3.39428164
H    0.93525394   0.01168694  -3.45257905
C   -0.02794510  -0.11099888  -1.53627371
N   -0.01111700  -0.07190979  -0.39046377
C    3.66706095   3.71151698  -0.45288850
H    4.71846425   3.52804461  -0.52897507
H    3.33752429   3.49100336   0.54093162
H    3.46728543   4.73893115  -0.67516975
C    2.91563867   2.81424484  -1.45382170
N    2.35617063   2.14618495  -2.19906196
Na   0.47922658   0.71573542   1.84426646
