61
Energy:   -590.70980105
C   -1.21701044   0.20226771   4.05702418
H   -1.70865539  -0.29402873   4.86750259
H   -1.93348064   0.76565527   3.49652084
H   -0.46852966   0.86174628   4.44401724
C   -0.55547934  -0.84345139   3.14026457
N   -0.06293937  -1.62203680   2.45769537
C   -3.43274256  -3.61411186   2.04533845
H   -4.13024901  -4.35342014   1.71096110
H   -3.96494158  -2.75705642   2.40187633
H   -2.83649463  -4.01829671   2.83655404
C   -2.52103563  -3.20185499   0.87468276
N   -1.84222838  -2.89491101   0.00307639
C   -1.20596373   2.71867346   0.52646152
H   -1.40897835   2.75254397   1.57647963
H   -2.09741619   2.95310177  -0.01691218
H   -0.44460382   3.43141028   0.28722021
C   -0.72653757   1.30671300   0.14160025
N   -0.36958300   0.25544425  -0.14494646
C   -0.30436426   4.39050064  -3.33530392
H   -1.09976324   5.09633164  -3.21679969
H    0.13372046   4.50623214  -4.30462693
H    0.43914634   4.56172236  -2.58512114
C   -0.86019929   2.96163096  -3.19046306
N   -1.27404374   1.89777254  -3.08262246
C   -1.53046172  -1.56694861  -4.14507514
H   -1.10747617  -1.65889084  -5.12360978
H   -1.92584627  -0.58075144  -4.01864218
H   -2.31591767  -2.28393519  -4.02722652
C   -0.43971520  -1.82208301  -3.08829775
N    0.37239517  -2.01204216  -2.30147894
C    2.53712297  -6.58206003   0.65253243
H    1.92993345  -7.35728613   0.23390902
H    2.71871758  -6.79021949   1.68625973
H    3.46905574  -6.53685334   0.12874166
C    1.80837367  -5.23178136   0.52110955
N    1.26578669  -4.22643751   0.42325924
C    2.30969965   0.85359021  -2.70179072
H    2.98452298   1.14242396  -3.48030772
H    1.34412487   0.66017789  -3.12030728
H    2.67478386  -0.03112244  -2.22335980
C    2.20271586   1.98958155  -1.66753826
N    2.12306156   2.83537873  -0.89749029
C   -3.98405244  -0.14933142  -1.25751408
H   -4.95168341   0.23503970  -1.50419065
H   -3.91418721  -1.16918632  -1.57360571
H   -3.23321647   0.42991331  -1.75311470
C   -3.77258303  -0.06838908   0.26574854
N   -3.61513445  -0.00812383   1.39988681
C    2.40478839   4.57374101   2.21098748
H    1.70888719   5.35114953   2.44817450
H    2.65325274   4.62243486   1.17137530
H    3.29199006   4.69854265   2.79596341
C    1.77185468   3.20514760   2.52395235
N    1.30060676   2.18616760   2.75696892
C    4.21193549   0.70898503   1.67963025
H    5.21518978   0.33732310   1.66386880
H    3.88524973   0.81097669   2.69342175
H    4.17730943   1.66285470   1.19606767
C    3.28801657  -0.27575240   0.93918038
N    2.60011693  -1.00893417   0.38788179
Na   0.43315527  -2.00587757   0.11415031
