61
Energy:   -592.83717860
C    0.25578402  -4.35645989  -2.23316096
H    0.57819865  -5.33590791  -1.94745034
H    0.50663628  -4.18344152  -3.25884945
H   -0.80393940  -4.27890825  -2.10718032
C    0.95591899  -3.30741854  -1.34946234
N    1.47720131  -2.52635956  -0.69150854
C   -2.29774196  -0.77604721   4.65559827
H   -2.07814061  -1.79860087   4.42963491
H   -3.10728876  -0.73097775   5.35381158
H   -1.43315389  -0.31126062   5.08146207
C   -2.69302275  -0.03814461   3.36298354
N   -2.98732726   0.51125742   2.40057311
C   -2.80709398  -0.40312570  -4.81742181
H   -2.27426997  -0.71656881  -5.69077865
H   -2.68996198   0.65252159  -4.68785334
H   -3.84540562  -0.63555495  -4.93049116
C   -2.24815119  -1.13682182  -3.58418504
N   -1.83199288  -1.68309194  -2.66598420
C   -0.04740939   4.97155006  -2.58164385
H   -1.11643720   4.98720835  -2.62447540
H    0.33827638   4.50995932  -3.46656168
H    0.32147926   5.97355155  -2.51226618
C    0.40516924   4.17122487  -1.34622805
N    0.74213460   3.57534640  -0.42640484
C   -2.47937714   1.58194535  -0.84735536
H   -3.19933099   0.90201085  -1.25264008
H   -2.21744059   2.30773302  -1.58865191
H   -2.89639299   2.07690033   0.00471063
C   -1.21998130   0.80358450  -0.42347273
N   -0.28230384   0.22405946  -0.10787284
C   -0.30543447   3.03920979   2.79344148
H    0.41802086   3.69049717   2.34921483
H   -0.54632306   3.39035658   3.77505633
H   -1.19041141   3.02615868   2.19215571
C    0.27373644   1.61523524   2.88540638
N    0.70495551   0.55502146   2.95387843
C    3.91565955   2.94364678   0.54357202
H    3.23727528   3.59266028   1.05687159
H    4.02003701   3.26714228  -0.47099937
H    4.87000514   2.97109146   1.02665626
C    3.36825505   1.50445844   0.56974859
N    2.96068752   0.43291729   0.58923823
C    1.75099898   0.12516257  -3.00447462
H    1.95604082   0.19749673  -1.95679825
H    2.61492279   0.42745035  -3.55869195
H    1.50528873  -0.88669367  -3.25079256
C    0.56612451   1.04230522  -3.36017372
N   -0.31606839   1.72515962  -3.62500786
C   -3.16984442  -2.57450995   0.42283625
H   -3.83280037  -3.18714327   0.99735346
H   -3.04153901  -3.00226604  -0.54951222
H   -3.58355895  -1.59223681   0.32860863
C   -1.80490525  -2.49086585   1.13103446
N   -0.78864599  -2.42858902   1.65832022
C    4.36967662  -3.82564892   4.14388876
H    5.25229878  -4.02125978   3.57151240
H    3.92303792  -4.75224057   4.43857653
H    4.62759577  -3.26094282   5.01537244
C    3.37097378  -3.02326942   3.28926616
N    2.62739412  -2.42586141   2.65296079
Na   1.22191105  -1.10460552   1.24460559
