61
Energy:   -589.96818981
C   -2.95118472   2.20272093   3.14514993
H   -2.29388316   2.25755227   3.98767493
H   -3.34108828   1.20985092   3.06098681
H   -3.75820069   2.89284693   3.27687087
C   -2.17453680   2.55953051   1.86409374
N   -1.59628713   2.82519146   0.91028918
C   -4.70351807   1.73978537  -0.98144886
H   -4.77340451   1.37969457  -1.98661088
H   -3.93307207   2.47977844  -0.92043809
H   -5.63803621   2.17317699  -0.69205875
C   -4.36679200   0.56924804  -0.03908061
N   -4.11608414  -0.30227020   0.66255539
C    1.69976207  -2.78380647  -1.16186344
H    2.69833569  -2.97275081  -0.82712334
H    1.53592028  -3.28211537  -2.09446367
H    1.00477053  -3.14953080  -0.43513684
C    1.49864015  -1.26830318  -1.34733517
N    1.34889575  -0.13994209  -1.48542730
C   -1.41992430  -0.39769070  -4.30359162
H   -0.87680706  -1.28937815  -4.06946060
H   -0.91429868   0.13372996  -5.08258706
H   -2.40579780  -0.65580446  -4.62967418
C   -1.51040936   0.49231660  -3.05007678
N   -1.57777960   1.15496749  -2.11677800
C    2.70541713   0.39794628   3.42697191
H    2.95441307   1.06542874   4.22532544
H    3.58288021  -0.12990360   3.11659771
H    1.96878608  -0.30140376   3.76339916
C    2.14435528   1.20352247   2.24044057
N    1.72661923   1.80331055   1.35701405
C    4.43622944   1.52544487  -1.04260603
H    3.86199095   1.37111696  -1.93217516
H    5.44238268   1.77617729  -1.30659090
H    4.00677325   2.32435496  -0.47497135
C    4.43269097   0.23685883  -0.19931871
N    4.43005641  -0.72255204   0.42854703
C    4.34982806  -3.65487698   2.35030674
H    4.44416747  -4.48416184   1.68076444
H    4.59116324  -3.96958422   3.34409534
H    5.01956076  -2.87621730   2.05022956
C    2.90279058  -3.12907047   2.31552119
N    1.82540540  -2.73758363   2.28962177
C   -4.24540094  -3.22666180  -1.13245092
H   -4.89617738  -2.67985189  -1.78236563
H   -4.47736809  -2.99112592  -0.11480010
H   -4.37830758  -4.27587042  -1.29491995
C   -2.78362125  -2.84257812  -1.42788257
N   -1.69525982  -2.55661036  -1.64784486
C   -1.56629235  -2.63815262   1.99545562
H   -2.62850895  -2.60180638   2.11904777
H   -1.10433475  -2.84387919   2.93841418
H   -1.31448059  -3.41035789   1.29890056
C   -1.06478791  -1.28297080   1.46293749
N   -0.69139506  -0.27397635   1.06645354
C    1.52200438   5.92587741  -2.20569855
H    0.59546901   6.44837058  -2.32160052
H    2.06621133   5.95625856  -3.12646718
H    2.09970293   6.39098290  -1.43443960
C    1.24081696   4.46074486  -1.82370347
N    1.03146015   3.36988708  -1.53929078
Na   0.02953984   1.54411499  -0.34738345
