61
Energy:   -592.35940500
C   -3.04600386  -0.44148861   3.77250076
H   -2.41021110  -1.22064426   4.13799253
H   -4.05959048  -0.65174237   4.04330440
H   -2.74852820   0.49240723   4.20173948
C   -2.93040547  -0.36159045   2.23892543
N   -2.84433722  -0.30210264   1.09710889
C   -5.58505067   3.82490629  -1.88201526
H   -5.67807626   4.73860097  -1.33300848
H   -6.44633754   3.21453806  -1.70727361
H   -5.50833433   4.04279780  -2.92678173
C   -4.32196604   3.07474070  -1.41998842
N   -3.38154211   2.51620832  -1.07598843
C    1.00826232  -0.71061727  -3.69421391
H    1.96208407  -0.70243912  -4.17904106
H    0.98738254   0.04349737  -2.93541602
H    0.24084989  -0.51417049  -4.41350934
C    0.77002310  -2.09048805  -3.05327809
N    0.59264317  -3.11786456  -2.57607224
C    1.19943961   4.68991939  -1.00254221
H    0.45129883   5.44595653  -0.88595149
H    1.89357709   4.98883261  -1.75998735
H    1.71813903   4.55559039  -0.07636419
C    0.53062339   3.36491048  -1.41319564
N    0.03265931   2.37838112  -1.71894578
C   -3.05448935  -3.09274388  -2.49471461
H   -3.60809241  -3.17988891  -3.40621314
H   -3.67500873  -3.37995109  -1.67169163
H   -2.19749315  -3.73211970  -2.53539833
C   -2.59806383  -1.63373070  -2.30882145
N   -2.25823429  -0.54742906  -2.17041555
C    3.51020324   0.51630682  -0.88845902
H    3.72396806   1.10730925  -1.75443876
H    2.77245948  -0.21943990  -1.13199547
H    4.40436887   0.02946104  -0.55929629
C    2.97741018   1.42532600   0.23466861
N    2.58072153   2.10213210   1.07088818
C    2.99076518  -0.60663248   3.24945105
H    3.39921467   0.38202124   3.27461099
H    3.23748458  -1.07085858   2.31750537
H    3.39945618  -1.18195976   4.05373289
C    1.45959946  -0.53337488   3.39698032
N    0.31957699  -0.47883127   3.50682256
C    0.37785142   3.01945362   3.64017720
H    0.06315870   3.97472583   4.00531236
H    1.42094549   3.05376516   3.40421833
H    0.20622602   2.27649520   4.39081466
C   -0.42349114   2.66449690   2.37390084
N   -1.02012710   2.40021548   1.43110053
C    0.04285662  -3.00139882   0.97625417
H    0.01086135  -3.72585380   0.18946229
H   -0.84489165  -3.07867895   1.56856311
H    0.89924279  -3.18119117   1.59202730
C    0.13404405  -1.58873049   0.36991018
N    0.20193724  -0.53693470  -0.08154048
C    3.48263950  -4.83944706  -1.47538070
H    3.78945293  -5.68376909  -0.89410106
H    4.19832385  -4.66103911  -2.25053592
H    2.52560878  -5.03568753  -1.91182196
C    3.38841572  -3.59858679  -0.56819402
N    3.31826183  -2.67470992   0.10724770
Na  -1.58176215   1.05313954  -0.48862848
