61
Energy:   -589.36290689
C   -4.82022843  -0.81247674   2.55693983
H   -4.48409633  -1.07289767   3.53882391
H   -5.50485905  -1.55587907   2.20546724
H   -5.31084783   0.13789648   2.58828352
C   -3.61252372  -0.73554851   1.60450537
N   -2.71333268  -0.67827195   0.89537463
C    2.67440346   1.76708825   2.15201532
H    2.80258114   0.71610950   1.99737274
H    3.61403768   2.20608220   2.41520907
H    2.30943112   2.21799346   1.25291646
C    1.66283811   1.99892286   3.28981506
N    0.90968173   2.17153427   4.13695869
C    2.78267034  -0.93976237  -6.88705695
H    2.24711909  -1.18257752  -7.78099533
H    3.05168807  -1.84082853  -6.37655883
H    3.66820902  -0.39445904  -7.13878025
C    1.89176407  -0.07825602  -5.97289459
N    1.22844385   0.56317462  -5.29225916
C   -0.07231288  -1.30135889   4.86587057
H   -1.11505897  -1.44207181   5.06024298
H    0.27115309  -0.42694691   5.37805600
H    0.47322195  -2.15451003   5.21144831
C    0.14896583  -1.12943687   3.35157913
N    0.31371788  -1.00143312   2.22412032
C    3.59599069   0.22054589  -2.70360779
H    3.28700776   1.00123573  -3.36689739
H    3.68376173  -0.69628393  -3.24823466
H    4.54292467   0.47193619  -2.27347055
C    2.55149153   0.05467126  -1.58418512
N    1.77381443  -0.06882994  -0.75072405
C   -0.80135409  -2.41135402  -4.20556183
H   -1.35064060  -2.43911687  -3.28773084
H   -1.11543838  -3.21859239  -4.83374680
H   -0.98345152  -1.48125511  -4.70220621
C    0.70334132  -2.54822384  -3.90763840
N    1.82365545  -2.65012965  -3.68582087
C   -1.72553816   2.40634663   6.47704775
H   -1.78484954   1.80989709   7.36340563
H   -2.33142372   3.28046769   6.59415514
H   -0.70931952   2.69654569   6.30976576
C   -2.23074791   1.58903602   5.27356677
N   -2.60689953   0.98051113   4.37752047
C    1.86027812  -4.52920996  -0.61970380
H    2.47478623  -4.40083842   0.24678377
H    2.44830471  -4.37430181  -1.50011694
H    1.45912267  -5.52112358  -0.62869110
C    0.70688902  -3.50930503  -0.58672636
N   -0.15186160  -2.74993945  -0.56217316
C   -1.89776575   3.63601417   2.29264909
H   -2.85320984   3.24296645   2.57110961
H   -2.03067414   4.56171448   1.77273238
H   -1.31035255   3.80169718   3.17150856
C   -1.17678637   2.63093114   1.37526322
N   -0.63998445   1.88260114   0.69222774
C   -1.19664631   2.35951124  -3.89905785
H   -1.44920052   2.00186367  -4.87537992
H   -0.23127063   2.82015049  -3.92663283
H   -1.92503905   3.07649650  -3.58239518
C   -1.17423529   1.17935531  -2.90995234
N   -1.15754926   0.30067557  -2.17351832
Na  -0.49379613  -0.43875323   0.01998236
