61
Energy:   -588.99946478
C   -2.18830572  -3.27938502   3.47998501
H   -1.48704371  -4.00502243   3.12420120
H   -3.14112436  -3.45084970   3.02431451
H   -2.28077151  -3.36383622   4.54263131
C   -1.69316974  -1.86667950   3.11845567
N   -1.32451850  -0.81485602   2.84928065
C   -3.50858348  -2.43575775  -1.32482870
H   -4.52450978  -2.26681294  -1.61508996
H   -3.46718887  -3.24481892  -0.62582540
H   -2.92682569  -2.68073618  -2.18879776
C   -2.94328169  -1.16188064  -0.66964095
N   -2.52238881  -0.21342123  -0.18182388
C    0.52274129  -4.73524898  -1.68267579
H    0.44866751  -5.80146581  -1.63173537
H    1.55240878  -4.44695664  -1.64303395
H    0.09103919  -4.39111506  -2.59924779
C   -0.23127234  -4.11091373  -0.49386591
N   -0.79266976  -3.64606776   0.39125709
C   -0.20414185   5.28090905  -1.12843869
H   -0.33350837   6.05501296  -0.40116459
H   -0.73399702   5.53851693  -2.02163003
H    0.83672243   5.17046402  -1.35048046
C   -0.75342286   3.95497121  -0.57006675
N   -1.16238754   2.96775022  -0.15433346
C   -0.10207499   0.90262829  -2.76923270
H    0.67526590   1.08604843  -2.05719453
H   -1.01345566   1.34435039  -2.42402846
H    0.16826274   1.33247384  -3.71106570
C   -0.29824253  -0.61576820  -2.93533628
N   -0.44429819  -1.74628340  -3.05900794
C    2.17856576  -2.14408552   1.36587928
H    2.63392145  -2.66504541   0.54969782
H    1.52867491  -2.80907600   1.89533998
H    2.93836716  -1.78528856   2.02834864
C    1.36500346  -0.95360082   0.82508120
N    0.75926936  -0.06723084   0.42243245
C    2.39735534   4.16806698   2.68674286
H    2.13857608   4.94125126   3.37964946
H    2.52188382   4.59019184   1.71144683
H    3.31154762   3.70484704   2.99427961
C    1.27482062   3.11440393   2.65054947
N    0.43904249   2.32990389   2.62360184
C   -5.08416461   3.11533474   3.90186324
H   -5.26954817   4.11101398   3.55667350
H   -4.82243973   3.14035721   4.93905804
H   -5.96517234   2.52248027   3.77053139
C   -3.92604446   2.49955343   3.09491151
N   -3.06377136   2.04107626   2.49409927
C    4.22436110   1.03477496  -0.87004479
H    4.29185743   0.74817096  -1.89873452
H    3.92865604   0.19034680  -0.28318988
H    5.17765952   1.38615080  -0.53440174
C    3.18077215   2.15689925  -0.71720773
N    2.40377273   2.99237180  -0.60341360
C    2.66030543  -2.60370586  -4.60609503
H    3.17883619  -3.51836445  -4.80465409
H    3.03803043  -1.83349448  -5.24562404
H    1.61495681  -2.73917781  -4.78992296
C    2.87488807  -2.20083081  -3.13529729
N    3.03465460  -1.90087202  -2.04022152
Na  -1.18256279   1.07832799   1.34704038
