61
Energy:   -590.88863781
C    0.99876497  -1.48019459   3.85578983
H    1.74649890  -1.97074275   4.44329019
H    0.03821448  -1.63173894   4.30219340
H    1.21035076  -0.43224128   3.81192187
C    1.00053639  -2.06433181   2.43087560
N    1.00185528  -2.49924852   1.36996218
C    1.44634054   2.78094271   1.86942272
H    0.58082105   3.23482621   2.30504409
H    2.32763198   3.19427678   2.31369678
H    1.42097935   1.72538372   2.04277527
C    1.46014188   3.05201407   0.35353030
N    1.47041761   3.25383901  -0.77512051
C    0.94532608   2.30794940  -4.15269832
H   -0.05762811   2.45742398  -4.49422493
H    1.60160880   2.23469301  -4.99461612
H    1.24076739   3.13468573  -3.54104436
C    1.01905934   1.00836756  -3.32974603
N    1.07395710   0.04076982  -2.71702065
C    4.68545171   1.55411772  -1.23292039
H    4.16534520   2.44377470  -1.52084375
H    5.10746137   1.09113031  -2.10035891
H    5.46700168   1.80428101  -0.54626396
C    3.70178834   0.57998262  -0.55833370
N    2.96940625  -0.14530524  -0.05607325
C   -2.83931338   1.18988811   1.00243676
H   -3.39382984   1.38290055   0.10792131
H   -2.73897791   2.09611921   1.56241629
H   -3.35580633   0.46158391   1.59210371
C   -1.44226606   0.65601180   0.63523811
N   -0.40210082   0.25851661   0.36184203
C   -1.51737405   4.69028129  -1.62371341
H   -1.60151185   4.80342400  -0.56304393
H   -2.21155914   5.34457872  -2.10837930
H   -0.52213231   4.93550464  -1.93072886
C   -1.82957558   3.23280029  -2.01085592
N   -2.06202382   2.14763943  -2.29910112
C   -2.81291427  -0.96984043  -3.33560619
H   -2.25369788  -0.31198943  -3.96759453
H   -3.55163696  -0.40922540  -2.80184719
H   -3.29411922  -1.71535422  -3.93356111
C   -1.86198230  -1.65053934  -2.33361947
N   -1.15397023  -2.15735062  -1.58759481
C    3.56952036  -5.35536125  -2.46364548
H    2.88100716  -6.05833354  -2.88397835
H    4.02631744  -5.77980133  -1.59411334
H    4.32450770  -5.12080594  -3.18467045
C    2.81639962  -4.07031224  -2.07241897
N    2.25566699  -3.11353484  -1.78113305
C   -2.29746562  -4.05037602   1.04804805
H   -1.28099395  -4.21327771   0.75624577
H   -2.89614451  -3.88318743   0.17711139
H   -2.66067952  -4.91043295   1.57080690
C   -2.37601853  -2.81870468   1.96914258
N   -2.43450474  -1.90166938   2.65493934
C   -2.81378813   0.26926893   5.42298687
H   -3.51679964   1.00724694   5.74866073
H   -2.34168061  -0.17401799   6.27475579
H   -3.32394040  -0.48717297   4.86402408
C   -1.74721917   0.93384612   4.53283642
N   -0.95311010   1.42865405   3.87007895
Na   0.99161925  -1.36163211  -0.75522692
