61
Energy:   -592.85118343
C    3.00430507  -1.86838944  -3.10173280
H    2.87178119  -0.82098000  -3.27571859
H    2.19139704  -2.40846449  -3.54036541
H    3.92492134  -2.18948209  -3.54248704
C    3.04002112  -2.13643883  -1.58566094
N    3.06661334  -2.33601378  -0.45687653
C   -3.20877583  -1.69545802   5.62020315
H   -3.35986310  -2.75451016   5.64214360
H   -4.15408666  -1.19883059   5.68837734
H   -2.59332019  -1.40579472   6.44616236
C   -2.51657698  -1.30288479   4.30173927
N   -2.00120347  -1.01059618   3.32008298
C   -4.19437179   2.23694592  -0.15854421
H   -5.19260551   2.04283944   0.17425049
H   -4.21059973   2.51544913  -1.19153584
H   -3.77441067   3.03371323   0.41911798
C   -3.33873392   0.96872614   0.01781455
N   -2.70167263   0.02447886   0.14912167
C    0.23648602   5.30340096  -2.62606129
H    1.24106573   4.94058862  -2.56213158
H    0.16640413   6.24869759  -2.12967243
H   -0.03608776   5.41938632  -3.65423930
C   -0.71619144   4.29812500  -1.95269223
N   -1.42550312   3.54965135  -1.45133837
C   -0.07796755   4.42235036   1.62467024
H    0.74388809   4.61569772   0.96734970
H    0.12860926   4.84205088   2.58699897
H   -0.96606612   4.86585383   1.22531490
C   -0.27994378   2.90170353   1.76045983
N   -0.43032426   1.76951284   1.86156135
C    3.32360185   1.25235031   0.85070375
H    4.37997523   1.41235613   0.90878633
H    3.13196154   0.26128204   0.49579986
H    2.89060516   1.37344995   1.82165578
C    2.70222307   2.27416785  -0.11954226
N    2.23957833   3.03495746  -0.84193451
C    0.13901605   0.98979018  -3.18073049
H   -0.83979037   1.40864111  -3.28751096
H    0.27963293   0.22095197  -3.91149296
H    0.87229073   1.75585817  -3.32337396
C    0.29001528   0.39094391  -1.76999225
N    0.40244108  -0.05492436  -0.71963350
C    0.73030867  -4.84217640  -0.53880132
H    1.72635419  -4.85752587  -0.14821472
H    0.76325260  -4.66051892  -1.59275310
H    0.26014612  -5.78540762  -0.35397404
C   -0.07398576  -3.72398573   0.14993674
N   -0.67281951  -2.89144196   0.66273354
C   -3.02201307  -2.46627169  -2.21530150
H   -3.45375481  -1.51269948  -2.43711059
H   -3.03564042  -2.62659597  -1.15746904
H   -3.58697206  -3.23499045  -2.69985481
C   -1.56789329  -2.50157545  -2.72115654
N   -0.48523502  -2.52786071  -3.09778861
C    3.36862294  -2.83553725   2.96435808
H    2.96823281  -3.81443806   3.12665760
H    3.92537168  -2.53058781   3.82571501
H    4.01294800  -2.85082943   2.11024424
C    2.21623492  -1.84354002   2.72034302
N    1.35822967  -1.10495298   2.53866272
Na  -0.68012634  -0.58021753   1.36472667
