61
Energy:   -589.88611813
C    0.43848830  -2.74864964  -3.38229815
H    0.42825993  -1.78103506  -3.83893541
H   -0.53019391  -3.19461742  -3.46985724
H    1.16134140  -3.36676236  -3.87252173
C    0.80702033  -2.60981058  -1.89350405
N    1.08140918  -2.50643858  -0.78502918
C   -3.42797250   0.12534719  -0.38189127
H   -3.93555496  -0.64082551  -0.92983253
H   -3.02863295   0.84664997  -1.06390983
H   -4.11666982   0.60507211   0.28177966
C   -2.28097226  -0.50052005   0.43314288
N   -1.42697845  -0.96650666   1.03997284
C   -0.30642245   2.56843523  -2.59775049
H   -1.31160312   2.81999334  -2.33086006
H   -0.28394755   2.21083389  -3.60597431
H    0.31296296   3.43685461  -2.51343812
C    0.21648823   1.47118150  -1.65212970
N    0.60581900   0.65422622  -0.94807204
C   -0.77977403   5.38450034   0.39970131
H   -0.03920160   5.37009926  -0.37246788
H   -0.33763696   5.72785540   1.31157915
H   -1.57508803   6.04292160   0.11888791
C   -1.33733496   3.96341554   0.60278704
N   -1.75246441   2.90535331   0.75399360
C    4.50954994   1.12582351  -1.40122234
H    3.92238494   1.97821354  -1.67245782
H    4.60349642   0.47437270  -2.24483658
H    5.48118040   1.44689088  -1.08857386
C    3.82099314   0.37452290  -0.24665016
N    3.30833130  -0.18485455   0.61298131
C   -1.52470727  -4.49137408   0.77447097
H   -0.46597215  -4.59318566   0.65778966
H   -1.95974867  -5.45505892   0.93863434
H   -1.73201882  -3.85903660   1.61236735
C   -2.12398742  -3.86794791  -0.49981436
N   -2.57017872  -3.40377879  -1.44857772
C    2.70507709  -4.22584338   4.13406941
H    3.10254771  -5.01844993   3.53516027
H    2.05289651  -4.63350092   4.87796114
H    3.50725430  -3.70253670   4.61110288
C    1.91713210  -3.25152903   3.23882963
N    1.33047125  -2.52610771   2.57228293
C   -1.48816145   1.65225531   3.96273635
H   -2.26733654   0.93779458   3.79741172
H   -1.80061555   2.61037034   3.60317118
H   -1.27847263   1.71537536   5.01008803
C   -0.21882436   1.21072877   3.21078046
N    0.72625480   0.88199219   2.65091512
C   -3.87866821  -1.95079764  -4.33893935
H   -4.20382471  -2.56429657  -3.52481867
H   -3.48749928  -2.57057922  -5.11852691
H   -4.70716520  -1.38674134  -4.71354890
C   -2.78125846  -0.98761333  -3.84948267
N   -1.96418703  -0.27047884  -3.48505992
C    3.18921046   3.16805614   2.40844457
H    4.08979497   3.73619346   2.51364774
H    3.40942985   2.12680111   2.51885502
H    2.48937583   3.46634270   3.16087776
C    2.58332831   3.41968276   1.01517831
N    2.13222151   3.60703021  -0.02217175
Na   0.99035426  -0.80630901   0.93355244
