24
Energy:    -91.10685157
O    1.90424807  -0.57795078   1.33308911
H    1.32524728   0.19766441   1.29305861
C    1.07801307  -1.72778278   1.42115646
H    1.74618172  -2.59212101   1.46537500
H    0.42182375  -1.84802648   0.54495194
H    0.45221386  -1.73335012   2.32731410
O    0.15135261   1.61512182   0.85497408
H   -0.03565115   1.41859337  -0.07498798
C    0.95825063   2.78125896   0.89464208
H    1.15943442   2.98835820   1.94921317
H    0.45536749   3.66119529   0.46383130
H    1.92408016   2.64769355   0.38267438
O   -1.99296842  -1.54819022  -0.97868814
H   -2.61412382  -2.20210929  -1.33221197
C   -2.55353887  -1.02281370   0.21390318
H   -1.84115970  -0.28804683   0.59876519
H   -2.70291159  -1.79154766   0.98818557
H   -3.51337456  -0.51068620   0.04296981
O   -0.29868982   0.60476768  -1.72925402
H   -0.87648420  -0.15467193  -1.56243556
C    0.95003039   0.10474048  -2.18003603
H    1.58857984   0.97318909  -2.36316661
H    0.86664684  -0.46207346  -3.12053934
H    1.44743201  -0.53321239  -1.43278433
