24
Energy:   -100.15938260
O    1.61561445   0.16148233   1.62324603
H    1.73780332  -0.04935637   0.68567459
C    1.40095044   1.56005290   1.72548834
H    1.26524072   1.78022360   2.78784089
H    0.49769037   1.89190333   1.18997562
H    2.25701122   2.14940983   1.36135146
O   -1.38968577   0.74299575  -0.60103100
H   -1.52753098   0.18757285   0.18058743
C   -2.56481494   1.51398168  -0.79386743
H   -2.39241994   2.13365335  -1.67804625
H   -2.77901784   2.18223121   0.05485928
H   -3.45495857   0.89301493  -0.98047383
O   -1.06704854  -1.06331786   1.59692878
H   -0.19879005  -0.64545108   1.69661747
C   -0.85429737  -2.40828996   1.19903338
H   -1.84229785  -2.86407917   1.09134647
H   -0.29022216  -2.98856079   1.94594854
H   -0.33413176  -2.48835541   0.23166862
O    1.35433964  -0.17760085  -1.19625231
H    0.46766993   0.17546601  -1.36233630
C    1.89676018  -0.58279897  -2.44289910
H    2.89536792  -0.97786284  -2.23749141
H    1.99949495   0.25221736  -3.15351195
H    1.30727261  -1.37853182  -2.92465731
