24
Energy:    -90.68336684
O   -1.91441169  -0.76176562  -0.38118116
H   -2.32039684  -0.06994893   0.16194773
C   -1.53763530  -0.17387848  -1.61607469
H   -1.08214474  -0.96680008  -2.21548180
H   -0.79614635   0.63130527  -1.49503504
H   -2.39711272   0.22655431  -2.17619029
O   -2.74542594   1.52296028   1.09825864
H   -3.42292673   2.17237125   1.33842805
C   -1.48441971   2.06237559   1.46078889
H   -0.73291320   1.31822639   1.18336298
H   -1.39688743   2.24906360   2.54257585
H   -1.25245341   2.99724669   0.92694903
O    1.81298282   0.82608198  -0.72890412
H    1.54714353  -0.01442648  -0.32728455
C    3.20059256   0.99791269  -0.48901411
H    3.48331475   1.94919262  -0.94794750
H    3.81247663   0.20379240  -0.94480813
H    3.44328869   1.05100269   0.58385930
O    0.70176759  -1.60645049   0.30449595
H   -0.21580912  -1.37931327   0.09263531
C    0.78737345  -3.02014431   0.38619776
H    1.82726700  -3.25860100   0.62545706
H    0.53286305  -3.51714106  -0.56301034
H    0.14961312  -3.43961604   1.17997517
