24
Energy:    -95.45151813
O    0.44819714   0.07910862   2.20402161
H    1.09475236   0.31730183   1.52310046
C    0.57493618  -1.31228283   2.44999077
H   -0.16035439  -1.56358702   3.21919763
H    1.57193535  -1.58828031   2.82760879
H    0.35944382  -1.92294458   1.55924242
O    1.58535790   0.74642458  -0.26879329
H    1.33122264   0.45076190  -1.15559773
C    1.82513522   2.14317713  -0.33300321
H    2.11020603   2.45961170   0.67401665
H    0.93202472   2.71472533  -0.63043156
H    2.64759479   2.40240322  -1.01794074
O   -1.46360283   0.41141987  -0.11021268
H   -0.64038872   0.38837783   0.39989600
C   -2.54182188   0.39121726   0.81150817
H   -3.46113964   0.41763523   0.22020271
H   -2.54306859   1.26355948   1.48366502
H   -2.55798233  -0.52178801   1.42708720
O    0.01696369  -0.13415819  -2.47409880
H   -0.74339905   0.14953463  -1.94514684
C   -0.09113692  -1.53557325  -2.66615047
H    0.77302298  -1.83836364  -3.26367106
H   -1.00238930  -1.82053883  -3.21495924
H   -0.06550918  -2.09774196  -1.71953181
