24
Energy:    -95.55424325
O    1.74798133   0.09418063  -0.20980328
H    1.27084364   0.92007412  -0.04050222
C    2.65575469   0.33186126  -1.27375310
H    3.18474360  -0.60841239  -1.45135210
H    3.40308525   1.10337585  -1.03077244
H    2.14952101   0.62052407  -2.20819334
O   -0.07722102   2.26588030   0.09162912
H   -0.70893814   1.66530840  -0.33106479
C   -0.80731457   3.11545964   0.96209574
H   -0.08064427   3.78528616   1.42982207
H   -1.32505571   2.56197634   1.76108115
H   -1.54831686   3.73307351   0.43082742
O    0.58212240  -2.41367943   0.15583864
H    1.18456645  -1.65875555   0.08117696
C    0.19910395  -2.52570900   1.51719092
H   -0.47919888  -3.38070105   1.58336537
H   -0.33670975  -1.63576280   1.88280927
H    1.05381876  -2.71552749   2.18517958
O   -1.24440132  -0.10514185  -1.08604663
H   -0.44116063  -0.64277785  -1.02143078
C   -2.35532608  -0.96628109  -0.89416344
H   -3.25153722  -0.34456866  -0.97008742
H   -2.35544658  -1.44575524   0.09724054
H   -2.42027005  -1.75392788  -1.66108726
