24
Energy:    -90.52207971
O    1.74473963  -2.62446050  -0.69664591
H    2.28712805  -3.42673875  -0.67240347
C    1.02161957  -2.55678775   0.52198101
H    0.41608480  -1.64746474   0.47788458
H    1.67864963  -2.48701432   1.40301478
H    0.34273348  -3.41257457   0.66169474
O   -1.52161285   0.11851467  -0.31499110
H   -0.86070005  -0.04735402  -1.00354402
C   -2.59481996   0.82964011  -0.91086096
H   -3.33006303   1.00814854  -0.12153368
H   -3.08795670   0.26045572  -1.71436740
H   -2.28518938   1.80571032  -1.31606855
O    0.16170574   1.59904369   1.42176412
H   -0.47832109   1.09529508   0.89733465
C   -0.38566398   1.77158620   2.71912654
H    0.34794651   2.34077733   3.29646725
H   -0.56072994   0.81578745   3.23737165
H   -1.32881359   2.34006949   2.71058810
O    0.64808756  -0.37117411  -2.06170471
H    1.05654439  -1.18163348  -1.72296899
C    1.51655786   0.70837017  -1.75694699
H    1.04130899   1.61319869  -2.14541715
H    2.50326520   0.60855504  -2.23571926
H    1.66749919   0.84004975  -0.67405524
