24
Energy:    -92.42535704
O   -1.04908769   1.53692213   0.53429685
H   -0.09161553   1.59121858   0.39746762
C   -1.27235199   0.80502660   1.72887451
H   -2.35563567   0.75338797   1.86785332
H   -0.83745049   1.29389459   2.61467703
H   -0.88558155  -0.22468837   1.67527386
O    1.67861530   1.20795824   0.25160621
H    1.96900188   0.29119606   0.13479009
C    2.83492451   2.00203335   0.46356731
H    2.48971621   3.03135697   0.59321805
H    3.52865961   1.97976162  -0.39142562
H    3.39012261   1.71153821   1.36918587
O    0.45058337  -1.63295946   0.07894102
H   -0.28893481  -1.27148276  -0.43181404
C    0.07057783  -2.92207011   0.53316926
H    0.91479001  -3.31464113   1.10647459
H   -0.13525161  -3.62048535  -0.29304362
H   -0.80944055  -2.89749753   1.19478937
O   -1.91209500  -0.52435185  -1.29417618
H   -1.83217852   0.22856297  -0.68989487
C   -1.53778172  -0.07934300  -2.58815859
H   -1.63354917  -0.93963968  -3.25614318
H   -0.49509735   0.27234190  -2.63179761
H   -2.19093968   0.72196006  -2.96773127
