24
Energy:    -94.18875802
O    0.35513239  -1.71968935   2.42602018
H   -0.04633921  -2.37076010   3.02045327
C   -0.52022279  -0.60567285   2.35353346
H   -0.05280545   0.11784808   1.68009177
H   -0.66871709  -0.11733935   3.32937011
H   -1.50767560  -0.86684808   1.94182754
O   -1.80237554   0.63840093  -0.53251378
H   -0.88154612   0.91886662  -0.64130462
C   -2.54697643   1.17724152  -1.61314050
H   -3.58158823   0.85169602  -1.47499650
H   -2.20152029   0.81038974  -2.59235301
H   -2.53499213   2.27829925  -1.63062160
O    0.94959540   1.21164153  -0.81220988
H    1.31488369   0.32722588  -0.66122409
C    1.86548257   2.15294230  -0.27589158
H    1.43856604   3.14356189  -0.45449814
H    2.85149672   2.11294640  -0.76472055
H    2.01057790   2.03433870   0.80930788
O    1.64114060  -1.42121888  -0.09672888
H    1.29965445  -1.57330941   0.79695952
C    0.81341528  -2.13507566  -1.00105906
H    1.21212618  -1.95279850  -2.00270264
H   -0.23260079  -1.79116846  -0.98220325
H    0.82528844  -3.22151821  -0.82139567
