24
Energy:    -94.76088902
O    1.83609431  -1.04175606   1.30446235
H    0.97937047  -1.35436280   0.97777509
C    2.84769561  -1.73379759   0.59012692
H    3.80593965  -1.36969986   0.97050357
H    2.81351710  -1.53749472  -0.49295865
H    2.80973153  -2.82313867   0.74720038
O    0.25065139   1.51464630   0.13873010
H    0.46812468   0.65963011   0.53882504
C    1.26595256   2.43373593   0.50882677
H    1.00538964   3.39130205   0.04985043
H    2.26124733   2.13861076   0.14131242
H    1.32796279   2.58294932   1.59816943
O   -0.80072510  -1.36244709   0.31273907
H   -1.27097501  -0.81570679  -0.33407107
C   -1.61798684  -1.46117160   1.46810503
H   -1.07332633  -2.08014502   2.18622899
H   -2.58559330  -1.94594803   1.26437267
H   -1.81100144  -0.48370610   1.93723602
O   -1.98310886   0.48162714  -1.29834411
H   -1.38753743   1.14096954  -0.91235767
C   -2.22415837   0.85556279  -2.64541539
H   -2.89659661   0.10239864  -3.06500541
H   -1.30609211   0.87022682  -3.25345868
H   -2.71457566   1.83771494  -2.73285329
