24
Energy:    -96.10783700
O    0.50395912   1.87802291   1.50137745
H    0.78695362   1.89810766   0.57513019
C    1.65438269   1.64455077   2.29796402
H    1.31764140   1.62494184   3.33801498
H    2.40915584   2.44028522   2.19845773
H    2.13598407   0.67918677   2.07680844
O    1.20325812   0.68732892  -1.11203910
H    0.56345842  -0.03979467  -1.13129807
C    2.49951830   0.11782735  -1.02309381
H    3.20777012   0.95055693  -1.00245407
H    2.74502455  -0.51777126  -1.88826341
H    2.64183883  -0.47419753  -0.10547257
O   -0.45420188  -1.70199563  -1.33927497
H   -0.89584329  -1.31681051  -0.56790699
C   -1.38239632  -2.56063606  -1.98248991
H   -0.86868394  -2.98596688  -2.84890695
H   -2.27577384  -2.02723304  -2.34323242
H   -1.71024586  -3.39142950  -1.33822733
O   -1.44065138  -0.10317534   0.71033773
H   -0.81497487   0.44701857   1.20454300
C   -2.69187082   0.56538152   0.70641400
H   -3.38471207  -0.06795680   0.14575477
H   -2.64796598   1.54696566   0.20907884
H   -3.10162482   0.70679312   1.71877844
