24
Energy:    -90.10297207
O   -0.04887521  -1.81262811   1.21871866
H   -0.72925400  -2.06658257   0.57761407
C    0.98167374  -2.78585127   1.16093174
H    1.73958323  -2.48447064   1.88909938
H    1.46135608  -2.83899789   0.17105416
H    0.63024362  -3.79389691   1.43133550
O   -0.31873538   2.72718461  -1.10296360
H   -0.07521097   2.11847645  -0.38980616
C    0.70640622   2.67504247  -2.08219783
H    0.41615238   3.36637708  -2.87799577
H    0.82081671   1.67329792  -2.52513737
H    1.68465573   2.99589522  -1.69122631
O   -2.02487738  -2.09048750  -0.79306058
H   -2.81622628  -2.54229166  -1.12179026
C   -1.99863695  -0.79437343  -1.36919732
H   -1.10115000  -0.29941453  -0.98838495
H   -2.87098330  -0.18509794  -1.08534428
H   -1.93468351  -0.81880544  -2.46832897
O    0.46443792   0.94905583   1.02576188
H    0.27360455   0.00410714   1.12103979
C    1.06103619   1.39168582   2.23434906
H    1.26942818   2.45777404   2.10979431
H    2.01233724   0.88091987   2.45096347
H    0.39690119   1.27308144   3.10477139
