24
Energy:    -90.21459037
O    0.99424756  -1.20099577   1.58510076
H    1.10789090  -0.39551376   1.05907111
C    2.21667559  -1.91954246   1.54157886
H    2.07109544  -2.82363877   2.13899119
H    3.05719049  -1.35544347   1.97528886
H    2.49376045  -2.22587668   0.52071616
O   -1.67610548   1.16007143  -0.17352875
H   -2.01078495   0.66060311  -0.93309726
C   -2.03797492   0.45134160   1.00090146
H   -1.65332930   1.02767492   1.84669863
H   -1.59396382  -0.55553209   1.04375990
H   -3.12849862   0.35559976   1.12077178
O   -2.31163535  -0.53556450  -2.39137212
H   -2.84543073  -0.75884248  -3.16831016
C   -1.00839398  -1.05545297  -2.60068449
H   -0.42050699  -0.79504922  -1.71634068
H   -0.51242644  -0.61800930  -3.48127325
H   -0.99967442  -2.15165500  -2.70576736
O    1.11836030   1.18606677   0.04041357
H    0.16494178   1.31013098  -0.07801135
C    1.62202434   2.33240400   0.70732232
H    2.69689125   2.17603658   0.83260427
H    1.17879624   2.47259044   1.70565791
H    1.47685067   3.25859689   0.12950863
