24
Energy:    -94.90859265
O    0.41260426   0.26359786   1.50133072
H    1.09499257  -0.30635091   1.11671680
C    1.05689254   1.17722284   2.37466673
H    0.27390025   1.81143316   2.79914941
H    1.77762010   1.82699528   1.85397019
H    1.57796094   0.67600297   3.20535543
O   -2.13961443   1.32226537   0.92965598
H   -1.31332932   0.95239352   1.27443272
C   -3.02493399   0.24162960   0.68273619
H   -3.95036235   0.67598956   0.29492312
H   -3.26966529  -0.32457571   1.59503849
H   -2.63683686  -0.46264114  -0.06970031
O    2.13888633  -1.18351373  -0.30683914
H    1.52443354  -0.75860584  -0.92354355
C    2.38176298  -2.49900800  -0.77908858
H    3.07559865  -2.96318722  -0.07296188
H    2.84898871  -2.51336656  -1.77622011
H    1.46858123  -3.11352592  -0.81436094
O   -0.09129333   0.12416690  -1.47369287
H   -0.40738397   0.45027965  -0.61802912
C   -0.60362390   0.98488644  -2.47828882
H   -0.23802018   0.60316859  -3.43542549
H   -0.25279600   2.02296181  -2.36830403
H   -1.70436248   0.99178151  -2.51152096
