24
Energy:    -94.04272070
O    0.30711411  -1.72410504  -0.69512818
H   -0.14547224  -0.96344039  -1.08880084
C   -0.67539600  -2.70375191  -0.39932470
H   -0.14852626  -3.55344471   0.04329888
H   -1.20435388  -3.06012218  -1.29708921
H   -1.42350513  -2.34986961   0.32722700
O   -1.31646377   0.68180370  -1.07309666
H   -1.15737072   0.94628526  -0.15485803
C   -1.69260170   1.84278015  -1.79641382
H   -1.86798351   1.52689947  -2.82837594
H   -0.90519627   2.61265645  -1.80419245
H   -2.62039342   2.29848452  -1.41652781
O    2.16803687   0.26545341   0.69693787
H    2.07025943  -0.68454539   0.53456445
C    2.96524891   0.80078748  -0.34728632
H    3.06533068   1.87134327  -0.14884451
H    2.50364535   0.67924336  -1.33972096
H    3.97545234   0.36338266  -0.37800098
O   -0.49549947   1.08301907   1.56851685
H    0.43841980   0.97247181   1.33614352
C   -0.86577217  -0.00937121   2.39441961
H   -1.92033185   0.13092574   2.64681980
H   -0.29191041  -0.04603455   3.33362981
H   -0.76273070  -0.98085134   1.88610263
