24
Energy:    -96.28364307
O    0.59101352   0.67696916  -2.36161138
H    0.45608525   1.33874688  -1.66715628
C   -0.68761302   0.24918611  -2.80280248
H   -0.51711839  -0.49582571  -3.58470668
H   -1.28400559   1.06770574  -3.23537485
H   -1.27704079  -0.22477583  -2.00235740
O    0.19437803   1.80007285   0.21372252
H   -0.28768121   1.53782867   1.01201454
C    1.49757541   2.19758012   0.60894189
H    2.02676450   2.48970361  -0.30216072
H    2.06415595   1.38289726   1.08649363
H    1.48989761   3.06193647   1.29129553
O   -0.76638481   0.07259650   2.27580939
H   -0.36532768  -0.53335510   1.63518539
C   -2.00151502  -0.49134452   2.68685397
H   -2.43972792   0.20383072   3.40809321
H   -1.87934332  -1.46659990   3.18357155
H   -2.71193543  -0.61210750   1.85408960
O    0.57170016  -1.25394326   0.09717391
H    0.62967598  -0.49252631  -0.49890185
C    1.07441850  -2.38390204  -0.59780896
H    1.00179611  -3.23240189   0.08794552
H    2.13044346  -2.26923174  -0.88839343
H    0.48978871  -2.62304030  -1.49991662
