24
Energy:    -90.55755029
O    1.12091848   2.09461896   2.00713260
H    0.53837279   1.34445150   1.81657398
C    2.45734614   1.61946399   1.98025080
H    3.10009216   2.47705402   2.19681973
H    2.74568503   1.21648025   0.99676612
H    2.64967900   0.84771857   2.74195574
O   -0.37183067   0.35354009  -2.58560624
H   -0.97430179   0.81529107  -3.18746822
C    0.15194350   1.31280625  -1.68117115
H    0.82836066   0.77585503  -1.01062778
H   -0.62867260   1.79001219  -1.06823532
H    0.72859381   2.10329284  -2.18652521
O   -0.64779536  -1.88561356  -0.94035356
H   -0.50320860  -1.19369838  -1.60275172
C   -0.39740149  -3.13587264  -1.56219672
H   -0.56485503  -3.90387967  -0.80219033
H    0.63899428  -3.23187250  -1.92198161
H   -1.07766871  -3.33547827  -2.40491342
O   -0.56057146  -0.11888378   1.31366913
H   -0.59221383  -0.81515536   0.64089285
C   -1.89342722   0.14876532   1.71912351
H   -1.83937980   0.93509322   2.47691801
H   -2.38459649  -0.72736152   2.17071165
H   -2.52406280   0.51337237   0.89320717
