24
Energy:    -90.90621961
O    0.87365187   0.91512132   1.75673029
H    0.34537055   0.17864212   1.41476466
C    0.43595109   1.18094789   3.07971481
H    1.04128485   2.01291915   3.44968787
H    0.58278692   0.32457183   3.75635106
H   -0.62234836   1.48215304   3.12504776
O   -0.60193888  -1.23099748   0.67250191
H   -0.28282474  -1.30605099  -0.23906619
C   -0.63423982  -2.53675520   1.22611478
H   -0.99585879  -2.43382356   2.25281922
H    0.36007644  -3.00893792   1.26011461
H   -1.32030842  -3.20976654   0.68839465
O    0.49231194  -1.08159903  -1.91989297
H   -0.05300306  -0.38692488  -2.31799177
C    1.74992112  -0.50980030  -1.59740402
H    2.35149926  -1.30574485  -1.15012198
H    1.66953035   0.30946677  -0.86588771
H    2.28564870  -0.13359485  -2.48297883
O   -1.10527790   1.06882463  -2.83010484
H   -1.78520564   1.34954507  -3.46043616
C   -1.19362792   1.91631802  -1.69587250
H   -0.42099641   1.58628119  -0.99615723
H   -2.16773216   1.84561303  -1.18705126
H   -1.00467098   2.97359152  -1.93927618
