24
Energy:    -96.80807659
O    1.90605364  -1.35725813   0.28605120
H    0.98694807  -1.14608755   0.50758043
C    2.23757746  -2.57280541   0.93802554
H    3.27585745  -2.79584451   0.67780752
H    1.61349768  -3.41729987   0.60616582
H    2.16863940  -2.49968410   2.03469237
O    1.23416692   1.36494165  -0.66199584
H    1.71205842   0.53852396  -0.49744552
C    1.73986299   2.34055655   0.23521140
H    1.19077448   3.26490595   0.03630138
H    2.81216862   2.54136984   0.08483861
H    1.58171700   2.06998807   1.29093858
O   -0.78617020  -0.55619580   0.84439655
H   -0.94537981   0.25429829   0.33825932
C   -2.04859023  -1.09161338   1.20793124
H   -1.85076726  -2.00388956   1.77723208
H   -2.66374235  -1.36060371   0.33499974
H   -2.63148351  -0.41002988   1.84703740
O   -1.59753262   1.67960722  -1.07988512
H   -0.63640859   1.65194593  -1.19777800
C   -2.18600222   1.01012261  -2.18352802
H   -3.26845697   1.05062142  -2.03474371
H   -1.88938276  -0.04859521  -2.24606444
H   -1.95540560   1.49302561  -3.14602853
