24
Energy:   -100.03071270
O   -1.08096986  -0.69584543   1.72837519
H   -1.68196711  -0.16196766   1.18781982
C   -0.35569187   0.18894268   2.56721702
H    0.31630960  -0.42882775   3.16909651
H   -1.00628241   0.75373870   3.25315780
H    0.25705877   0.90664212   1.99957144
O    1.12915338   0.20685956  -1.16631284
H    1.08776861  -0.63929149  -0.69648419
C    2.49803923   0.52773539  -1.35532086
H    2.52635599   1.48338802  -1.88580310
H    3.02911037  -0.21820002  -1.96713876
H    3.04162308   0.64845774  -0.40520506
O    0.70513755  -2.14828007   0.26324326
H    0.16721487  -1.79855841   0.98902369
C   -0.16391978  -2.83041237  -0.62668295
H    0.45822571  -3.21791041  -1.43801855
H   -0.92626290  -2.16889855  -1.06714835
H   -0.67546541  -3.68233947  -0.15200556
O   -1.51828111   1.12038805  -0.60690963
H   -0.62906305   0.93602353  -0.94413986
C   -1.73241951   2.51967041  -0.70011576
H   -2.73838810   2.70979450  -0.31623397
H   -1.68721624   2.88866105  -1.73673522
H   -1.02006982   3.10022989  -0.09325009
