24
Energy:    -91.37322982
O   -1.76377249  -1.91273200  -1.81554328
H   -2.37605814  -2.58625545  -2.14704851
C   -1.67570501  -2.06649572  -0.40801544
H   -0.98222040  -1.30023976  -0.05106153
H   -1.27940166  -3.05032163  -0.11169202
H   -2.64213393  -1.91452878   0.09765099
O   -0.10537456   0.11607829   2.56370766
H    0.41094398   0.26089652   1.75694492
C    0.16056744   1.19584646   3.44456481
H   -0.42885516   1.01683838   4.34790434
H   -0.14128039   2.16927529   3.02731007
H    1.22104868   1.25618909   3.73528057
O   -0.03974698   0.30213024  -2.25220441
H   -0.64057960  -0.45707065  -2.28441381
C   -0.83172523   1.47895351  -2.27198394
H   -0.13925315   2.32430101  -2.23517069
H   -1.50627216   1.55219482  -1.40457431
H   -1.43408057   1.57078101  -3.18932416
O    1.43575627   0.52064726   0.15197678
H    0.97059046   0.52267234  -0.69775255
C    2.68588389  -0.12092713  -0.04320776
H    3.19662866  -0.11448972   0.92353085
H    3.32462689   0.40459155  -0.77026678
H    2.58041316  -1.16833493  -0.36661180
