24
Energy:    -94.43347337
O   -1.19524829   0.81788311   0.45513004
H   -0.70449129   1.01549323  -0.35636925
C   -1.02122045   1.91240498   1.34072022
H   -1.58039017   1.67329971   2.24936927
H   -1.41801617   2.85575030   0.93398925
H    0.03233244   2.07024004   1.61981112
O    2.17339861  -1.08908042  -1.35278299
H    2.50230865  -1.90135415  -1.76564236
C    1.81980956  -1.39921015  -0.01437793
H    1.45145075  -0.47340274   0.43581940
H    2.67670023  -1.75105932   0.58120402
H    1.01902326  -2.15242998   0.05026355
O    0.55146390   1.20266031  -1.72250318
H    1.14457648   0.44088060  -1.64292673
C    0.98605333   1.97247614  -2.83202984
H    0.30720605   2.82629090  -2.90720908
H    0.93979809   1.41500786  -3.78064298
H    2.00921437   2.35988141  -2.70618874
O   -0.92968592  -1.55618563   1.95613282
H   -1.04784705  -0.73169363   1.46148733
C   -2.18050145  -2.22496447   1.98313560
H   -2.02940904  -3.15130660   2.54398009
H   -2.54281554  -2.48996714   0.97751171
H   -2.96371037  -1.64161434   2.49211866
