24
Energy:    -90.76035040
O    1.28169082  -1.94097789  -2.15040495
H    1.65160161  -2.73175490  -2.57023943
C    0.10890031  -2.33179909  -1.45444879
H   -0.29482350  -1.42928269  -0.98759075
H    0.31118859  -3.06625703  -0.65919517
H   -0.66338075  -2.74577388  -2.12152012
O    0.46650414   0.00376707   1.60698320
H    1.10075305   0.13614125   0.88682442
C    0.81890384   0.88801343   2.65886561
H    0.09450334   0.72578607   3.46161799
H    0.76605126   1.94666694   2.36014053
H    1.82466933   0.69038780   3.06155311
O    1.91694558   0.45098029  -0.76960810
H    1.79146884  -0.32188843  -1.34000515
C    1.26806827   1.55127718  -1.38672946
H    1.41926542   2.41317375  -0.73116946
H    0.18391000   1.39576470  -1.50159473
H    1.69067163   1.79502237  -2.37403489
O   -1.81080679   1.05214753   0.26662458
H   -1.06260862   0.71605669   0.78205228
C   -2.96753605   0.33700588   0.67046072
H   -3.80067373   0.72806259   0.08017141
H   -3.20647118   0.48147926   1.73573757
H   -2.88879541  -0.74399888   0.47550959
