24
Energy:    -90.26551264
O   -0.91759309  -1.16289747  -0.43371421
H   -1.14232459  -0.27060497  -0.73658897
C   -2.09983764  -1.94533471  -0.48493491
H   -1.82876681  -2.94705410  -0.14060358
H   -2.50766320  -2.03340527  -1.50410085
H   -2.89328096  -1.56065135   0.17479515
O    1.49552415   2.16389911  -1.45912829
H    2.21540359   2.81108608  -1.49581481
C    2.07886037   0.87074316  -1.45967635
H    1.25416147   0.15406765  -1.41804531
H    2.72712372   0.69629817  -0.58669244
H    2.66192372   0.66764323  -2.37157815
O   -1.24331353   1.56248470  -1.01281910
H   -0.34081806   1.84493054  -1.22293703
C   -1.57630813   2.09617444   0.25872470
H   -2.59572270   1.76845244   0.47980710
H   -1.56055198   3.19720072   0.27516291
H   -0.91766544   1.72722353   1.06049921
O    0.57198584  -0.70542349   1.94233507
H    0.09058780  -0.89252107   1.12277805
C    1.44619509  -1.79568798   2.18649752
H    1.98047466  -1.56856793   3.11302168
H    2.19140858  -1.93052239   1.38696399
H    0.91019712  -2.74753303   2.32604862
