24
Energy:    -90.34181776
O   -1.33814572   1.69278064   0.92853391
H   -0.72953376   0.97043809   1.14355947
C   -0.58078390   2.89094738   0.87079907
H   -1.28161092   3.69418577   0.62762263
H    0.19488896   2.86648117   0.08944745
H   -0.09967023   3.13656533   1.83047547
O   -0.43298493  -2.03192988  -0.73503475
H    0.16077261  -1.74155170  -1.44324077
C   -1.72177626  -1.50757029  -1.01179767
H   -2.37789153  -1.84416508  -0.20451711
H   -2.13525289  -1.87580786  -1.96375119
H   -1.73830690  -0.40655984  -1.02853288
O    1.42474623  -0.91441037  -2.57394424
H    2.12754857  -1.11743295  -3.20898281
C    1.73155128   0.33562747  -1.97744626
H    0.92999258   0.54895247  -1.26506905
H    1.76649301   1.15849512  -2.70850387
H    2.68416908   0.32084765  -1.42510742
O    0.43293671  -0.45651369   1.42449109
H    0.20005314  -1.11662138   0.75482971
C    0.23120243  -1.04642748   2.69879042
H    0.49817278  -0.28945453   3.44122155
H    0.86989442  -1.92799226   2.86520381
H   -0.81646476  -1.33888378   2.87095345
