24
Energy:    -95.56695230
O    0.65210245   1.25001851   0.59362784
H    0.84370841   0.31904003   0.40657304
C    1.87737970   1.96238809   0.53231693
H    1.64330637   3.00895357   0.74537928
H    2.34840160   1.91349644  -0.46192917
H    2.60803794   1.61687152   1.28033710
O   -0.73821409  -1.42784152  -0.14160606
H   -1.35418263  -0.69031166  -0.01890423
C   -0.87388870  -2.29227642   0.97503107
H   -0.17317935  -3.11728968   0.82061372
H   -1.88631554  -2.71637813   1.06395223
H   -0.61819309  -1.80082173   1.92680276
O   -2.18964722   0.92659469   0.40285201
H   -1.33432967   1.35677745   0.55049333
C   -3.20420828   1.87286188   0.69912562
H   -4.16081648   1.37190413   0.52758180
H   -3.16172342   2.75985578   0.04780835
H   -3.17844264   2.20984035   1.74724726
O    1.96000791  -1.14183224  -0.90266909
H    1.02862544  -1.39564268  -0.82185932
C    2.37462873  -1.44178053  -2.22579206
H    3.42570641  -1.14972990  -2.29946249
H    1.81003322  -0.87967117  -2.98608300
H    2.30120293  -2.51502676  -2.46143691
