13
Energy:   -839.43371600
O    1.12819383   1.47322688   1.11495193
H    1.27389236   1.26096756   2.03687913
H    1.94439081   1.88529960   0.83166689
O    0.28440139   0.59502728  -1.94021852
H    1.06788997   0.83293673  -2.43597711
H   -0.28614774   0.17169321  -2.58169634
O   -2.07828557  -0.20049099   0.41977479
H   -2.64209587  -0.55054928  -0.27001430
H   -2.64407064  -0.15131317   1.19029451
O    0.51787800  -1.61066768   0.42715801
H    1.25404080  -2.04862612  -0.00002881
H    0.30666380  -2.17017607   1.17453392
Ca  -0.05192976   0.41993876   0.02351321
