13
Energy:   -822.85970652
O   -1.25870553  -1.03406081  -1.01396566
H   -1.75325222  -0.77645875  -1.79197376
H   -1.78770992  -1.72210290  -0.61025255
O    1.31101252   1.92936885   0.18796179
H    0.98704021   2.60613175   0.78232344
H    2.03412134   2.34701290  -0.27992594
O   -1.22105489   0.72038322   1.26784405
H   -1.15553962   0.92079804   2.20153217
H   -2.04872956   0.24739623   1.18141602
O    1.35850113  -1.46501761  -0.54262587
H    0.92074795  -2.13092914  -1.07287662
H    2.20921795  -1.84872953  -0.32983984
Ca   0.33923129   0.13979531   0.08507235
