13
Energy:   -821.51008549
O   -1.23596541  -1.30015271  -0.24703103
H   -1.59676402  -2.18619399  -0.21561360
H   -1.89312689  -0.79008320  -0.72052838
O   -0.88963627   0.95098012  -1.46769444
H   -0.53270457   1.00293006  -2.35433575
H   -1.47298133   1.70678658  -1.39915994
O    2.24058789   0.03589154  -0.34570666
H    2.81739585  -0.22570761   0.37199126
H    2.82777271   0.16550061  -1.09045315
O   -0.16093370   0.24283066   2.06594306
H   -0.79866670  -0.18158166   2.63987916
H    0.45125701   0.67225019   2.66348239
Ca   0.30327234  -0.06201849   0.10853480
