13
Energy:   -810.64745980
O    0.43827596  -0.16054785  -1.92611412
H    0.23766811   0.06231475  -2.83513590
H    0.46083480  -1.11739175  -1.91297301
O   -1.69833415   1.41844430   0.91691275
H   -1.66792833   1.94072653   1.71849157
H   -2.63102590   1.34122320   0.71602758
O   -0.35230847  -1.93740560  -0.04592979
H    0.35182374  -2.48886663   0.29512800
H   -1.13057528  -2.49362999  -0.01206195
O    1.68482370   0.88241264   0.85432462
H    1.87974648   1.77338267   1.14485753
H    2.44890929   0.37076560   1.12007331
Ca  -0.06934560   0.33589307   0.08578769
