13
Energy:   -817.47442897
O    0.82914849  -1.29970776   1.67962288
H    1.39866405  -1.63891004   2.37014854
H    0.03648621  -1.83302239   1.73873177
O   -1.60877207   0.01466396   0.21437076
H   -2.28636589  -0.14851813  -0.44173142
H   -2.09022470   0.30137480   0.99040691
O    0.37035848  -0.89580509  -1.57888885
H    0.78785924  -1.49329166  -2.19931996
H   -0.51090204  -0.76405218  -1.92853570
O    0.82774140   2.19233140  -0.28163804
H    0.63501279   2.64637870  -1.10196028
H    0.86557052   2.88811992   0.37462345
Ca   0.58308046   0.02726217   0.16457137
