13
Energy:   -818.05233337
O   -0.04617942  -1.93414564  -0.69172731
H    0.82983542  -2.29751822  -0.56215027
H   -0.32965425  -2.28624185  -1.53547024
O    1.22038195   1.16710473  -1.04205115
H    1.42553683   2.09386490  -1.16557811
H    1.81585455   0.70842067  -1.63471730
O   -1.70239820   1.62258137   0.22909180
H   -1.98485362   2.16968229   0.96198426
H   -2.18948244   1.95892076  -0.52314261
O    0.31164928  -0.86621867   1.68860025
H    0.99826853  -0.81004848   2.35315330
H   -0.04805546  -1.74755271   1.78907251
Ca  -0.20603768   0.25603820   0.03666801
