13
Energy:   -825.47202173
O   -2.01116609   0.02667708  -0.15827058
H   -2.83472750   0.50999804  -0.22444689
H   -2.26645689  -0.89319453  -0.22823266
O    0.08569597  -1.85081321  -0.16570247
H    0.37972660  -2.44276555   0.52666323
H    0.21869180  -2.34371895  -0.97538629
O    1.40517705   0.99076550  -1.37493585
H    1.62990667   1.87131366  -1.67554088
H    1.86778116   0.40668605  -1.97583557
O    0.49487402   1.09001796   1.73168838
H    1.29137306   1.07951299   2.26245271
H   -0.21452387   0.95916044   2.36086465
Ca  -0.03662837   0.51461639  -0.13673466
