13
Energy:   -812.19983115
O   -1.84615124   0.14831611   0.94591001
H   -1.59221671  -0.05326556   1.84652865
H   -2.80053613   0.21565422   0.97501184
O   -0.42522839  -1.59623851  -1.65228963
H   -1.13843155  -2.20430382  -1.84678815
H    0.25939407  -1.81977348  -2.28281009
O    0.98940855   1.49912827  -0.88804900
H    1.24482634   2.25794239  -1.41263906
H    1.68062641   1.41805652  -0.23087545
O    1.12231068   0.13178646   1.39429801
H    1.55052948  -0.72182216   1.45920434
H    1.37604035   0.58914039   2.19597156
Ca  -0.37606510   0.03999267  -0.44465044
