13
Energy:   -814.71895383
O    0.08162622   0.35487196  -2.00753486
H   -0.46796939  -0.23857128  -2.51939581
H    0.60127923   0.82383817  -2.66042328
O    1.76225624  -0.58535284   0.78770822
H    1.91877592   0.18486763   1.33405413
H    2.42418831  -1.21723592   1.06842440
O   -1.75870944  -1.19844690  -0.31855193
H   -2.28564483  -1.64672016   0.34297814
H   -1.97234379  -1.64437946  -1.13814717
O    0.07666039   1.46921550   1.47749884
H   -0.33170543   2.29702915   1.22413395
H   -0.07275299   1.40675421   2.42090017
Ca  -0.07222822  -0.03143730   0.02436424
