13
Energy:   -810.84756571
O    0.82925316  -1.06270155  -1.40232265
H    1.61922513  -1.58675521  -1.53477598
H    0.60202146  -0.74593595  -2.27654068
O   -1.39977843   0.78688641  -1.22653291
H   -1.32493048   1.20531593  -2.08417290
H   -2.22550862   1.11510279  -0.87061787
O   -0.13661944  -1.38301757   2.14921396
H   -0.87877017  -1.75343583   2.62695286
H    0.56110347  -1.31959830   2.80143523
O    0.67272336   1.40006316   0.63763790
H    0.15057470   2.08875452   0.22618093
H    1.56809320   1.73830163   0.62582988
Ca  -0.02097108  -0.38541463   0.27234334
