13
Energy:   -813.32740782
O    0.62258982  -1.77661515  -0.76404073
H    0.45572931  -2.16536506  -1.62268089
H    1.43261402  -2.19075596  -0.46641675
O   -1.77766091  -0.44465909   1.02387613
H   -2.66404445  -0.20160418   1.29123430
H   -1.75657814  -1.39845999   1.10166564
O    0.59977684   1.04036793  -1.73366972
H    1.16252582   0.54234678  -2.32656126
H    0.70786511   1.95088660  -2.00845059
O    0.28809852   1.23404507   1.64031987
H    0.85263406   1.04475731   2.38978743
H    0.42883720   2.16402869   1.46268278
Ca  -0.23291410   0.19402938  -0.08872664
