13
Energy:   -810.87333957
O    1.38848955  -0.22301531  -1.32238379
H    2.06722938  -0.81304450  -0.99464968
H    1.78175412   0.19241929  -2.08983993
O   -1.74337377  -0.57962457  -1.39265792
H   -2.28503836  -1.34908668  -1.21727441
H   -1.90750813  -0.37538247  -2.31329733
O   -0.35584244   1.68396614   0.99200121
H   -1.00244712   2.38970270   0.98362672
H   -0.05390377   1.64587729   1.89953310
O    0.59219706  -0.78352876   1.64661198
H    0.64765116  -0.51727802   2.56436317
H    1.11794221  -1.58182453   1.59613682
Ca  -0.20577811   0.29036833  -0.35017473
