13
Energy:   -810.55535107
O   -0.07999251   1.90120072  -0.09116889
H   -0.78907991   2.50583602   0.12756168
H    0.29853401   2.25616596  -0.89550041
O   -0.45149563  -0.02783663   1.99434738
H   -0.02515111  -0.01805830   2.85129930
H   -1.01313897   0.74726482   1.99686631
O   -1.19298278  -0.88139890  -1.43291471
H   -1.87640884  -1.53253843  -1.59159045
H   -1.41657482  -0.15280303  -2.01204034
O    1.82493711  -1.21846201  -0.28522537
H    1.93281117  -1.80385882  -1.03482901
H    2.65945408  -1.26911250   0.18087312
Ca   0.08372952  -0.43171022   0.10296388
