30
Energy:    -93.93084493
C    0.58367865   1.71323248   2.46784855
H    0.22845765   2.56914230   3.00276593
H    1.65213665   1.68106253   2.51540571
H    0.18018671   0.82510444   2.90753245
C    0.13787651   1.80590347   0.99670187
N   -0.19404344   1.87490123  -0.09863370
C    1.50463766  -2.65436773   2.65725500
H    0.60876964  -2.25099266   3.08105828
H    2.29165930  -1.93357003   2.73436991
H    1.78112800  -3.54232921   3.18638315
C    1.26335526  -2.99433602   1.17475564
N    1.08370955  -3.24745787   0.07096747
C   -2.47953127   3.08835658  -2.15220608
H   -2.77846538   2.86167290  -1.15013169
H   -3.25821362   3.63516606  -2.64164685
H   -1.58703130   3.67826138  -2.13335884
C   -2.21310142   1.77859046  -2.91714258
N   -2.01473230   0.80341005  -3.48667257
C   -1.66622962  -1.43630607  -0.86939444
H   -1.34318124  -2.43556911  -1.07436589
H   -1.00729585  -0.74298904  -1.34899518
H   -2.66012920  -1.29941590  -1.24131353
C   -1.64907742  -1.19299159   0.65116594
N   -1.63630682  -1.01183290   1.78329226
C    2.00752040  -0.30476190  -1.84220311
H    1.20498313   0.38974844  -1.97817920
H    1.64856541  -1.30015632  -2.00107531
H    2.78712032  -0.09062933  -2.54310988
C    2.55716086  -0.17990438  -0.40905763
N    2.96639317  -0.08694228   0.65798432
