30
Energy:    -91.63414799
C    3.75936675  -1.96143144  -0.40913552
H    3.49100500  -2.04086515   0.62361441
H    3.91149641  -0.93243830  -0.65999161
H    4.66146559  -2.50888663  -0.58636304
C    2.62830410  -2.54016198  -1.27940458
N    1.78617655  -2.97105318  -1.92735945
C    0.87769490   1.54508398   1.66428607
H    1.21751312   0.71950278   2.25406521
H    0.65510467   2.37305191   2.30445933
H    1.64207393   1.82621630   0.97032036
C   -0.39116244   1.13702778   0.89286453
N   -1.33588440   0.83321139   0.31850613
C   -3.77669655   3.15095842   1.27818955
H   -4.66926097   3.41099014   1.80791820
H   -3.75099187   2.09296777   1.12041080
H   -3.76366838   3.65289933   0.33331671
C   -2.54781517   3.57700385   2.10277177
N   -1.63285712   3.89421404   2.71671072
C   -1.13430235  -2.73579346   0.09700945
H   -1.73513644  -1.87948220  -0.12800078
H   -1.73191276  -3.46957538   0.59633398
H   -0.74751286  -3.14871290  -0.81117033
C    0.03387621  -2.31784805   1.00930353
N    0.90363824  -2.00666870   1.68854794
C   -0.14430525  -0.14677077  -2.91253018
H    0.00293413  -1.19201741  -3.08768785
H   -0.27138962   0.35717480  -3.84783094
H   -1.01708104  -0.00559647  -2.30984343
C    1.08283351   0.42911369  -2.18171722
N    1.99649409   0.85788584  -1.63759376
