30
Energy:    -91.16526924
C   -0.22478194  -1.67486751   1.41329027
H   -0.70355468  -2.10370970   0.55785399
H   -0.79025464  -0.83269565   1.75371099
H   -0.16759004  -2.40495961   2.19341443
C    1.19583985  -1.21896561   1.03173138
N    2.25355734  -0.87952592   0.74764344
C    2.70847791  -1.83504139  -2.57343527
H    3.08180268  -1.24647618  -1.76157333
H    2.50255595  -1.19970871  -3.40940633
H    3.44047924  -2.56427612  -2.85144580
C    1.41400600  -2.54698783  -2.13860802
N    0.45021282  -3.07706432  -1.81485937
C   -2.13416624   2.02746816   3.75755324
H   -2.63570939   1.76584525   2.84930872
H   -2.32445380   3.05515445   3.98679248
H   -2.49516604   1.41149865   4.55452238
C   -0.61887464   1.81144480   3.58777317
N    0.50932884   1.65060558   3.46136419
C    1.24757272   2.22727567  -0.10168101
H    1.71068093   1.54928318  -0.78779846
H    1.75388271   2.18312489   0.83991338
H    1.30407670   3.22244688  -0.49070627
C   -0.22899093   1.83431882   0.09052907
N   -1.32835968   1.54174458   0.23363821
C   -2.10105939  -0.69691230  -2.39867573
H   -1.92258657  -1.75052765  -2.34443244
H   -2.83656603  -0.49796212  -3.14990664
H   -2.45442990  -0.34580330  -1.45170644
C   -0.79075535   0.02783344  -2.75846309
N    0.18482557   0.56743958  -3.02634113
