30
Energy:    -93.82242782
C   -0.78574595  -2.63066671  -3.14137821
H    0.23786133  -2.39895752  -2.93295755
H   -1.20581141  -1.86543669  -3.76014078
H   -0.84239010  -3.57090673  -3.64895995
C   -1.57287118  -2.71227129  -1.82025195
N   -2.15892168  -2.77302961  -0.83661341
C   -2.61566439   0.65307562   0.23555705
H   -3.46523101   1.30019323   0.30170488
H   -1.85396558   0.99491792   0.90477888
H   -2.90393811  -0.34235086   0.50187169
C   -2.07430080   0.66238266  -1.20612213
N   -1.67123099   0.66931217  -2.27951780
C    1.77122277   1.40202682  -2.19723122
H    2.23102097   0.43775656  -2.25780065
H    2.49127159   2.15622399  -2.43726333
H    0.95699181   1.45303579  -2.88956433
C    1.24500800   1.63096067  -0.76814504
N    0.85321718   1.80141232   0.29587458
C    0.17384367  -1.64061601   1.55095388
H   -0.19359299  -0.64417600   1.68132949
H    0.76054496  -1.91855467   2.40150122
H   -0.65107326  -2.31472341   1.45100209
C    1.04553178  -1.70451021   0.28301170
N    1.69454320  -1.75208235  -0.66102888
C    1.78008324   2.54410959   3.39881324
H    2.55182364   2.07544214   2.82464622
H    2.20551413   2.98307507   4.27700283
H    1.31062243   3.30520119   2.81123754
C    0.73272229   1.49145337   3.80691852
N   -0.04708554   0.70770296   4.11077145
