30
Energy:    -91.33544251
C   -4.08510982   0.62770825  -0.12840854
H   -3.33762869   1.38411372  -0.24682687
H   -4.95924592   1.05647126   0.31537907
H   -4.33456860   0.21982802  -1.08564578
C   -3.54378621  -0.49100780   0.78101059
N   -3.14074617  -1.32394274   1.45811448
C   -0.20151265  -2.47993259  -0.47685327
H    0.48392131  -2.19966418   0.29550032
H    0.31198847  -3.05696218  -1.21729404
H   -0.99373175  -3.06332472  -0.05620899
C   -0.78688070  -1.21316749  -1.12819837
N   -1.22271382  -0.27000329  -1.61315440
C    1.25695309   2.09481303  -1.69211921
H    1.77631960   2.85408744  -2.23861805
H    0.83670676   1.38735619  -2.37607603
H    1.94062861   1.59551341  -1.03775940
C    0.13031045   2.73885382  -0.86297036
N   -0.70852621   3.21837147  -0.24563136
C   -0.82197008   1.07766566   2.43502511
H   -1.46132936   1.33529492   1.61664436
H   -0.62165883   1.95105318   3.01980604
H   -1.30288970   0.34222569   3.04555230
C    0.50209798   0.50832977   1.89253050
N    1.48792684   0.08443332   1.48861860
C    4.09436871  -1.45168386   0.10825875
H    4.53102406  -0.50918606   0.36502750
H    4.86977292  -2.16497029  -0.07847599
H    3.48254857  -1.79343002   0.91682833
C    3.23047110  -1.28971759  -1.15627589
N    2.58726006  -1.16912634  -2.09777940
