30
Energy:    -96.49166297
C    2.81138679  -1.50460232   3.29003722
H    2.50486184  -0.55569830   3.67801118
H    3.64169413  -1.87045354   3.85717186
H    1.99904574  -2.19755925   3.35940444
C    3.22669629  -1.34642226   1.81555525
N    3.53591309  -1.22865001   0.71773640
C   -2.52745530   1.37147392  -3.05531100
H   -2.74752530   1.23776104  -2.01675901
H   -3.17856332   0.75578365  -3.64001856
H   -2.67267612   2.39762610  -3.32143452
C   -1.06459819   0.97316152  -3.32548927
N    0.02456542   0.67659984  -3.52664928
C    0.55661770  -1.97581381  -1.14410726
H    0.69998617  -3.00985952  -1.37883076
H    0.99965946  -1.76095753  -0.19413364
H    1.01765025  -1.37181678  -1.89745689
C   -0.95091959  -1.66609706  -1.08927233
N   -2.07334962  -1.43549886  -1.04844523
C   -2.63574259   0.45309247   1.85081977
H   -3.12057791   0.41750888   2.80400848
H   -3.15234547  -0.18419944   1.16388486
H   -2.64646512   1.45764094   1.48249044
C   -1.17898517  -0.02426951   1.99773250
N   -0.09436305  -0.37968720   2.10711571
C    1.65913755   1.60240468  -0.44994037
H    1.81081718   0.87152526   0.31668127
H    2.36584871   2.39683401  -0.33018871
H    1.79370786   1.14683123  -1.40871185
C    0.23001327   2.16662652  -0.34574094
N   -0.83403471   2.58671532  -0.26815973
