30
Energy:    -96.87698621
C   -1.38564932   2.05697041   0.45508225
H   -1.95966430   2.75487761  -0.11792082
H   -0.49693026   1.79977672  -0.08243886
H   -1.12009593   2.49850192   1.39286177
C   -2.22078777   0.78719482   0.70370587
N   -2.84258632  -0.15821083   0.88881746
C   -1.04049203  -1.83725122   3.46439130
H   -1.87006960  -1.88788664   2.79049421
H   -1.39809727  -1.85979768   4.47261213
H   -0.39328203  -2.67266342   3.29674653
C   -0.26333343  -0.52955263   3.22449774
N    0.31529646   0.44408841   3.04588608
C    0.94187030   2.07600342  -3.77911847
H    1.46546464   1.14991795  -3.89363853
H    1.45755922   2.69229296  -3.07261212
H    0.89466247   2.57810466  -4.72281591
C   -0.48597925   1.79922703  -3.27291645
N   -1.54907815   1.59315443  -2.89602603
C   -1.02717916  -1.78161597  -1.51886001
H   -0.71909012  -0.77595507  -1.71539873
H   -2.06988246  -1.79480372  -1.27907885
H   -0.85294369  -2.38392781  -2.38590184
C   -0.22065115  -2.34315761  -0.33320257
N    0.37984562  -2.76125088   0.54957329
C    2.98707021  -0.42373972   1.22643644
H    2.50076763  -1.31701151   1.55881497
H    2.94739945   0.31332449   2.00107291
H    4.00839194  -0.63985890   0.99171637
C    2.27413754   0.11213344  -0.02901845
N    1.74332676   0.51111536  -0.96376168
