30
Energy:    -94.83537043
C   -0.52932660   2.55130805  -0.36492619
H   -0.71166641   3.03916322  -1.29961850
H    0.27689600   1.85670910  -0.47644526
H   -0.27176295   3.28105419   0.37401266
C   -1.79795284   1.79857427   0.07731735
N   -2.74250273   1.23812976   0.40658776
C   -1.47204534  -1.36723442   2.48104926
H   -1.30754586  -2.40902805   2.30075466
H   -2.31525266  -1.03556075   1.91193321
H   -1.66096634  -1.21099087   3.52258461
C   -0.22330617  -0.57006502   2.06060730
N    0.70643690   0.02346383   1.74756916
C    1.59517156  -1.42083653  -1.60843196
H    1.58225444  -1.24303695  -0.55338663
H    2.58142302  -1.25041234  -1.98680049
H    1.30848158  -2.43317384  -1.80306265
C    0.60691522  -0.46500776  -2.30221923
N   -0.12888655   0.24665020  -2.81877539
C   -3.31533199  -1.04157259  -1.96647480
H   -3.65886577  -1.56228893  -2.83580743
H   -2.83142280  -0.13422349  -2.26219189
H   -4.14857084  -0.81218256  -1.33560847
C   -2.31812481  -1.92818650  -1.19764867
N   -1.57565874  -2.58831085  -0.62522266
C    3.81898009   1.18279730   1.94027177
H    3.57788865   0.18395510   2.23875015
H    3.21662165   1.87480573   2.49089665
H    4.85302340   1.37428758   2.13771796
C    3.54466752   1.34880604   0.43402023
N    3.34042935   1.47240708  -0.68745252
