30
Energy:    -93.87278546
C    1.95368490  -1.25343748  -0.74648180
H    2.45449071  -0.43572304  -0.27167993
H    1.31100620  -0.87971047  -1.51602147
H    2.67754733  -1.91410732  -1.17594385
C    1.11605354  -2.01735318   0.29582645
N    0.49239891  -2.58612315   1.07187232
C   -2.73626305  -1.56356818   0.67899259
H   -2.98625011  -2.34856198   1.36177468
H   -2.00250484  -1.91539122  -0.01578689
H   -3.61400225  -1.26007387   0.14761308
C   -2.16924257  -0.36420455   1.46105054
N   -1.74707004   0.52877620   2.04332823
C   -0.41646966   0.68938653  -4.43410252
H   -0.58484851  -0.05991473  -5.17915042
H    0.63441345   0.86549826  -4.33648878
H   -0.90472226   1.59638135  -4.72370378
C   -0.98389835   0.20895560  -3.08546958
N   -1.40637480  -0.14874707  -2.08135106
C    0.73877820  -0.57403213   4.03842637
H   -0.05770675   0.09246208   4.29590916
H    1.29499199  -0.82183879   4.91826566
H    0.33265146  -1.46647926   3.61005939
C    1.66910962   0.10782874   3.01805919
N    2.36178366   0.61550516   2.25834944
C    0.12961374   2.60442326   0.14349406
H    0.52634899   2.13120853   1.01731849
H   -0.86987799   2.26164543  -0.02508448
H    0.12399755   3.66517593   0.28374853
C    1.00521719   2.25215102  -1.07339661
N    1.65714375   1.98986832  -1.97942702
