30
Energy:    -91.42663450
C    1.12181550  -2.38412982   1.19910360
H    0.10010616  -2.10387744   1.34899960
H    1.49106297  -2.86986120   2.07809190
H    1.18973912  -3.05305820   0.36674533
C    1.96311512  -1.12563460   0.91625254
N    2.58950093  -0.18862770   0.70565707
C   -3.56283186   1.54101009   3.31203069
H   -3.09639329   1.08435751   4.15985358
H   -3.57685071   0.84840166   2.49655775
H   -4.56571043   1.81740350   3.56251092
C   -2.77058119   2.79728918   2.90496593
N   -2.18071455   3.73264607   2.60188771
C    3.28182922  -0.30449581  -2.69859439
H    4.30644496  -0.36579257  -2.39642643
H    2.79073399   0.46490886  -2.14025665
H    3.23093791  -0.07542039  -3.74254535
C    2.58720270  -1.65334163  -2.43456986
N    2.07002168  -2.65761865  -2.23799159
C    0.24499853   2.44137580   0.28532671
H    1.26284844   2.28497929   0.57588114
H   -0.13378818   3.31685866   0.77004259
H    0.19270609   2.57022644  -0.77559841
C   -0.59951424   1.22097824   0.69645683
N   -1.22829238   0.31233678   1.00256189
C   -1.36841114  -1.71488054  -1.94878499
H   -1.71129279  -1.61596849  -0.94004877
H   -0.69792944  -2.54590459  -2.01772270
H   -2.20517355  -1.87710040  -2.59563309
C   -0.63559665  -0.42770892  -2.37041532
N   -0.08998295   0.53064886  -2.68433826
