30
Energy:    -93.11561208
C    0.55420318   0.64709738  -3.61053474
H    0.81875964   0.14066902  -4.51521169
H    0.25327005   1.64855502  -3.83729659
H   -0.25384014   0.13067886  -3.13590119
C    1.76953887   0.67788193  -2.66522450
N    2.67441154   0.70080243  -1.96139805
C   -1.63490845  -2.06001360   2.80036279
H   -1.91590711  -3.06433824   3.03967840
H   -1.92779977  -1.83750153   1.79557319
H   -2.12162596  -1.38385387   3.47178901
C   -0.10842381  -1.90795225   2.93572150
N    1.02811339  -1.79473566   3.03650221
C    2.35691008  -2.32759519  -0.13527191
H    2.62889155  -2.19151911   0.89059824
H    3.03946884  -1.78977665  -0.75958261
H    2.39495266  -3.36870842  -0.37927006
C    0.92833027  -1.79907395  -0.36204282
N   -0.13531233  -1.40556586  -0.53088406
C    1.40626147   1.64777578   1.19077389
H    1.36118896   2.22756129   0.29259939
H    1.86136844   0.70207734   0.98237237
H    1.98651824   2.16917702   1.92312757
C   -0.01902019   1.42398846   1.72937525
N   -1.08020717   1.25736862   2.13038844
C   -3.07402933   1.70182548  -0.51685698
H   -2.89423694   0.65781671  -0.36645563
H   -3.89639565   1.82884466  -1.18952245
H   -3.30567421   2.16254311   0.42068183
C   -1.81580548   2.35851719  -1.11454313
N   -0.87900063   2.84745402  -1.55954765
