30
Energy:    -91.83198075
C    2.32428765   0.24843370  -0.25166387
H    3.02653191  -0.35909221  -0.78332678
H    2.83162076   1.08653509   0.17856662
H    1.57040273   0.59598935  -0.92676511
C    1.66843001  -0.58364443   0.86596610
N    1.18011418  -1.20316441   1.69809241
C    0.12267729   0.57852784   4.31323044
H   -0.03820865   0.97903674   5.29231599
H    0.68433600   1.27776682   3.72970372
H    0.66555226  -0.34044434   4.38856947
C   -1.23547248   0.31834552   3.63548833
N   -2.24667672   0.12462796   3.13087853
C   -1.29125610  -2.23517105  -0.31269423
H   -0.37632303  -2.78890457  -0.34699958
H   -2.08146456  -2.82597964  -0.72671705
H   -1.52276920  -1.99143096   0.70312640
C   -1.13756022  -0.93868723  -1.12946059
N   -1.02312666   0.02660390  -1.73758027
C   -2.00024238   2.28735102   0.42095101
H   -2.01585958   2.40300630  -0.64266553
H   -2.64872688   3.01156582   0.86803029
H   -2.33348728   1.30351084   0.67767152
C   -0.56480628   2.49456073   0.93881908
N    0.50394115   2.64883777   1.32439540
C    0.77868251  -0.74305387  -4.61261501
H   -0.09057000  -1.24886853  -4.97792555
H    1.49367777  -0.64661015  -5.40279187
H    0.50380492   0.22896130  -4.25972990
C    1.39631697  -1.55284245  -3.45746561
N    1.85617390  -2.15576685  -2.59740437
