30
Energy:    -92.90927318
C    0.59569835   1.54753363  -3.31193829
H    1.52079241   1.66287487  -2.78677396
H   -0.15276905   2.16050013  -2.85480843
H    0.72525227   1.84378891  -4.33191264
C    0.15502644   0.07292615  -3.25770692
N   -0.17307384  -1.02498615  -3.21732920
C    0.66034340   2.29194979   0.53393464
H    0.38546949   1.31934941   0.18266124
H    1.65393796   2.52074044   0.20939837
H   -0.01953745   3.01854538   0.14059003
C    0.60444304   2.31672536   2.07272031
N    0.56282268   2.33517189   3.21841618
C   -0.37312830  -0.66225989   4.26674999
H   -1.05758948   0.13269773   4.47759465
H    0.61579523  -0.36528398   4.54734693
H   -0.65522025  -1.53243441   4.82183514
C   -0.40532503  -0.98142764   2.76053111
N   -0.42929695  -1.21906255   1.63908269
C   -2.71282770  -1.12834418  -0.80187939
H   -1.82369573  -1.69000730  -0.99905717
H   -3.47417651  -1.40929797  -1.49924016
H   -3.04889752  -1.33038388   0.19367881
C   -2.41305004   0.37518308  -0.94727242
N   -2.18985196   1.49462747  -1.05552414
C    1.70964021  -2.44323258  -0.62091871
H    2.24450106  -3.10993124  -1.26460882
H    0.67599221  -2.43323997  -0.89727183
H    1.80470649  -2.77302476   0.39254003
C    2.29069750  -1.02341007  -0.75536744
N    2.72332107   0.03371232  -0.85547063
