30
Energy:    -91.46728044
C   -2.95738102  -0.97115084   2.01180260
H   -2.74953308   0.03172675   2.32153789
H   -2.20877963  -1.62777750   2.40338464
H   -3.91806282  -1.26606982   2.37924288
C   -2.95128939  -1.04503062   0.47358783
N   -2.94675390  -1.10003748  -0.67168298
C    0.79879841   0.32188318   2.08082126
H    1.73255692   0.64465599   2.49168978
H    0.56721493  -0.65651236   2.44689551
H    0.02671604   1.00336929   2.37127709
C    0.89941290   0.28465918   0.54456246
N    0.97432496   0.25694421  -0.59925204
C   -1.84695734   1.99973464  -1.75122531
H   -1.40760454   1.05248064  -1.98484711
H   -1.25008805   2.78277577  -2.17014385
H   -2.83430743   2.04573453  -2.16100928
C   -1.91729663   2.16987329  -0.22226971
N   -1.96966742   2.29654925   0.91610723
C   -0.11712043  -2.94038540  -1.50537030
H    0.87075734  -3.15271104  -1.85738667
H   -0.41083402  -1.96526504  -1.83365628
H   -0.79844203  -3.66794923  -1.89440867
C   -0.13560417  -2.99109167   0.03368370
N   -0.14936616  -3.02884479   1.17957937
C    4.12666187   1.58933135  -1.35981833
H    3.77427718   2.53353324  -1.71927349
H    3.49692851   0.80842947  -1.73201079
H    5.12934351   1.43062410  -1.69796123
C    4.09706562   1.58272123   0.17988306
N    4.07502986   1.57779969   1.32626073
