30
Energy:    -91.66906422
C    2.13316668  -2.89748115   0.64322441
H    2.07593516  -2.29540272   1.52590572
H    2.83444326  -2.46438532  -0.03907923
H    2.45304270  -3.88446659   0.90483129
C    0.74583843  -2.96683715  -0.02168918
N   -0.28709051  -3.01847584  -0.51674757
C   -2.41913899  -0.88057432   0.75876007
H   -2.57389232  -1.80617377   0.24473940
H   -3.32703929  -0.58451032   1.24142169
H   -1.64939668  -1.00397620   1.49167742
C   -1.99756490   0.20309451  -0.25096126
N   -1.68368382   1.00993521  -1.00274468
C   -1.91598225   2.73679051   2.32129116
H   -2.40511871   3.12366629   3.19075814
H   -1.61738844   1.72505109   2.50052334
H   -2.58881356   2.76813989   1.48989815
C   -0.67336695   3.59100890   2.00853220
N    0.25181662   4.22701331   1.77566894
C   -0.02100685  -1.07810869  -3.42802918
H   -0.06871255  -1.57110816  -4.37648891
H   -0.32005147  -0.05701818  -3.54136747
H   -0.67669953  -1.56734113  -2.73837867
C    1.42176426  -1.13403615  -2.89241399
N    2.49597293  -1.17567669  -2.49362413
C    1.81565566   1.80610313  -0.18750285
H    0.99448181   2.30344481  -0.65996972
H    2.32957763   1.20367234  -0.90712806
H    2.48932457   2.53345778   0.21501982
C    1.28828811   0.91050432   0.94888892
N    0.89563900   0.24369030   1.79498424
