30
Energy:    -93.13077093
C    1.54707765  -1.36405708   1.79266252
H    1.95568297  -2.16371579   1.21086546
H    1.51160694  -1.65387584   2.82205361
H    2.16322359  -0.49558734   1.68766930
C    0.12325065  -1.04597060   1.29957260
N   -0.93685327  -0.80914075   0.93244474
C   -1.81689019   1.96861972  -0.73630549
H   -2.10485808   2.96427202  -1.00210837
H   -1.01478522   2.00610293  -0.02911264
H   -2.65191437   1.45978255  -0.30188813
C   -1.35505181   1.21402072  -1.99681556
N   -1.01119214   0.65218746  -2.93532261
C   -1.14685774   1.87354156   3.29211714
H   -1.72109484   1.40135104   2.52257958
H   -0.40577306   2.50463160   2.84779974
H   -1.79315709   2.46217413   3.90913249
C   -0.45680437   0.79765224   4.15112152
N    0.05697172  -0.00339626   4.79068932
C   -1.35937914  -2.64711316  -2.13884928
H   -1.53291748  -2.18751412  -3.08940351
H   -1.91327550  -2.12760264  -1.38505439
H   -1.67574655  -3.66868410  -2.17354168
C    0.14291829  -2.58600039  -1.80573119
N    1.26144702  -2.54049916  -1.55770963
C    2.51226537   0.43848440  -2.46620524
H    1.66195540   0.04483103  -2.98283874
H    3.19469363  -0.35558477  -2.24564931
H    2.99851592   1.16591253  -3.08208494
C    2.05405140   1.10096542  -1.15366616
N    1.71289028   1.59421266  -0.17642115
