30
Energy:    -95.76145617
C   -1.43806477   2.92902109  -0.40272889
H   -1.73482659   2.32241430   0.42724749
H   -1.86433624   2.53615821  -1.30209005
H   -1.78201399   3.93112535  -0.25311245
C    0.09759515   2.92522925  -0.51820274
N    1.24096377   2.92240606  -0.60417826
C    0.24750115  -2.42983042   2.00049693
H    0.90056890  -2.75274039   1.21683128
H   -0.55259541  -3.13179938   2.10996919
H    0.79486752  -2.36700682   2.91774409
C   -0.32868668  -1.04518748   1.65068057
N   -0.75768472  -0.01425786   1.39022639
C    1.40886670  -0.61817724  -1.78855699
H    1.17220335  -1.18045274  -0.90950245
H    2.07591637   0.17860916  -1.53345843
H    1.87666278  -1.25888846  -2.50657862
C    0.11615318  -0.03355137  -2.38747631
N   -0.84633079   0.40172916  -2.83339897
C   -3.23512777  -1.50414070  -1.53525513
H   -4.14156785  -1.85939054  -1.09133610
H   -3.34398656  -1.48195297  -2.59947154
H   -3.02549737  -0.51774038  -1.17752816
C   -2.07556536  -2.44446100  -1.15734937
N   -1.21221844  -3.14457220  -0.87598136
C    2.65629021   1.76164752   2.13881229
H    1.60568151   1.95438387   2.20185386
H    3.10788121   2.46253994   1.46820476
H    3.09617355   1.86202807   3.10903159
C    2.88532514   0.33101460   1.61686167
N    3.05585205  -0.73415664   1.22824570
