30
Energy:    -94.94309982
C    0.34044572  -0.41393972   3.73171211
H   -0.64898578  -0.56438825   3.35317449
H    0.28977505  -0.14981787   4.76736225
H    0.90568680  -1.31566506   3.62083823
C    1.02389191   0.72026814   2.94553539
N    1.53274866   1.56473745   2.36019108
C   -2.37097785  -2.17622511   0.24206795
H   -2.44633190  -3.22858730   0.06386646
H   -2.91545163  -1.64693851  -0.51179084
H   -2.77950146  -1.94723906   1.20413497
C   -0.89091789  -1.75295527   0.19888063
N    0.21105403  -1.43781163   0.16672571
C    3.38456645   0.39814982  -0.18871895
H    3.78318415   1.16347016   0.44396492
H    4.18736468  -0.12511104  -0.66475693
H    2.81077914  -0.28755665   0.39905130
C    2.48124877   1.03667096  -1.26012360
N    1.80868771   1.51207897  -2.05783307
C   -0.03801915  -0.73879070  -3.62837150
H   -0.23884036  -1.50850305  -4.34399286
H    0.61481680  -1.11816745  -2.87023063
H    0.42801637   0.09065185  -4.11799894
C   -1.35932763  -0.27873781  -2.98486918
N   -2.34310185   0.06379248  -2.50575245
C   -1.03517053   2.30143102  -0.09038378
H   -0.24830500   2.85398710   0.37911020
H   -1.70945130   2.97921438  -0.57085673
H   -0.61903184   1.63648632  -0.81810366
C   -1.79613844   1.48768380   0.97279227
N   -2.36271364   0.88181201   1.76437516
