30
Energy:    -94.88040634
C    2.29174892   1.68412835   3.06277843
H    2.87415267   2.32486224   2.43415602
H    2.52866378   0.66292685   2.84849373
H    2.51278912   1.89389217   4.08846818
C    0.79440728   1.92981464   2.79970762
N   -0.32043164   2.11273924   2.60383944
C   -1.89339346  -1.96392431  -3.57996717
H   -1.12087485  -1.41121830  -4.07254330
H   -2.84648590  -1.66215429  -3.96134460
H   -1.75280850  -3.00959546  -3.75803122
C   -1.83583927  -1.68874576  -2.06584555
N   -1.79298755  -1.48386282  -0.93851318
C   -1.66582361  -1.05323784   2.34828947
H   -2.22631820  -1.86094171   1.92596204
H   -1.89324466  -0.14871949   1.82386091
H   -1.92388107  -0.94147625   3.38067253
C   -0.16040155  -1.35343200   2.22505026
N    0.96045360  -1.57694020   2.13329308
C    1.86499409  -1.18824385  -1.18658878
H    1.03272669  -1.58331504  -0.64239220
H    2.70060345  -1.84955373  -1.09002109
H    1.60292394  -1.09315030  -2.21963067
C    2.23736993   0.19529406  -0.62200124
N    2.51462067   1.22540092  -0.20164016
C   -0.86346023   2.19315364  -0.75910784
H   -1.23076638   1.44282565  -0.09053154
H   -1.61266563   2.94424146  -0.89859780
H    0.01651788   2.63965614  -0.34537711
C   -0.52302829   1.54942908  -2.11606208
N   -0.26956123   1.07014689  -3.12637618
