30
Energy:    -93.81835573
C    0.82997440  -2.52091850  -3.16942044
H    1.75652268  -2.17876121  -2.75791485
H    1.00012900  -2.92142689  -4.14693746
H    0.41893360  -3.28147370  -2.53894416
C   -0.15686819  -1.34230350  -3.26220180
N   -0.89161736  -0.46477106  -3.33128175
C    0.52295708   1.92820245  -1.23372871
H    0.01934400   1.94552427  -2.17764291
H    0.96425434   2.88496971  -1.04730922
H   -0.17944446   1.70231079  -0.45880670
C    1.62358038   0.85135556  -1.25881107
N    2.44304445   0.04959410  -1.27748602
C   -0.63248648   2.77217436   3.61723913
H   -0.83017923   3.51397237   4.36259372
H    0.41022079   2.53207352   3.62073794
H   -1.20193997   1.89173445   3.83042304
C   -1.02908906   3.31728174   2.23262209
N   -1.32437770   3.72313896   1.20171177
C    1.93778998  -2.15538702   1.28800528
H    1.86078628  -2.92875330   2.02344746
H    2.96132575  -1.86054990   1.18629639
H    1.57635962  -2.51903639   0.34884271
C    1.09567941  -0.94327734   1.72759589
N    0.46868981  -0.04080659   2.05489108
C   -2.52231453  -0.19639059  -0.10822517
H   -2.63056588   0.21622715  -1.08951433
H   -1.95238324   0.47458140   0.49994751
H   -3.48916296  -0.33881816   0.32745543
C   -1.79524822  -1.55096298  -0.19827087
N   -1.25391431  -2.55950370  -0.26531399
