30
Energy:    -93.76798875
C   -0.86744395   2.14105277  -0.79900861
H   -0.76613012   2.52953014  -1.79083572
H   -1.86732662   1.78859430  -0.65441683
H   -0.18068404   1.33223981  -0.66087276
C   -0.56259692   3.25330049   0.22156637
N   -0.33562445   4.08141947   0.98143084
C   -2.50245031  -1.98043536  -1.79817193
H   -3.21954292  -2.49339855  -2.40442858
H   -2.99712007  -1.53506279  -0.96041050
H   -1.76728668  -2.67559745  -1.45005815
C   -1.81650317  -0.88263968  -2.63239083
N   -1.30578435  -0.06528090  -3.25350472
C    0.92407458   1.95017789   3.27490731
H   -0.13229342   1.78045786   3.26141889
H    1.11757408   3.00009960   3.20334305
H    1.33421739   1.57337559   4.18852758
C    1.57566230   1.22565781   2.08238725
N    2.06079898   0.68621968   1.19450186
C    0.31676273  -2.40011960   1.86432225
H    0.13377647  -3.28278984   1.28785936
H    0.23089356  -2.63011780   2.90577624
H    1.30252215  -2.03809099   1.65910840
C   -0.71504498  -1.31975747   1.49043654
N   -1.48327271  -0.51537875   1.21206163
C    2.14089540  -0.14345428  -2.24735748
H    2.87065511  -0.38018458  -2.99321922
H    2.61392620   0.36791677  -1.43517487
H    1.38641160   0.48449463  -2.67319013
C    1.49566774  -1.44251101  -1.72992837
N    1.01526642  -2.40971779  -1.34467887
