30
Energy:    -94.35033161
C   -1.49835176   1.45238034   1.42329078
H   -1.81847391   0.52655264   1.85371507
H   -2.05682296   2.25752258   1.85312212
H   -0.45647691   1.59591129   1.62025460
C   -1.73335548   1.41949985  -0.09831762
N   -1.90832643   1.39501883  -1.23122424
C    0.51562985  -1.98853258   1.11611782
H    0.05255292  -1.38406145   0.36440339
H   -0.14646774  -2.78193305   1.39368145
H    1.42513926  -2.40092850   0.73190260
C    0.82602696  -1.12307219   2.35152542
N    1.05713172  -0.47869759   3.27134254
C    0.98271415   0.81736807  -3.02864583
H    2.04795148   0.90608901  -3.07658536
H    0.59980184   1.50500765  -2.30378097
H    0.56281860   1.03928653  -3.98746751
C    0.60501120  -0.61940998  -2.62292509
N    0.32379419  -1.68915655  -2.32084755
C   -3.03485576  -1.91907205  -2.00119027
H   -2.79691349  -0.96501419  -2.42315858
H   -4.03604497  -2.18701171  -2.26713688
H   -2.35636283  -2.65528315  -2.37873449
C   -2.91287315  -1.84697558  -0.46772285
N   -2.82205155  -1.79329648   0.67401335
C    3.37783364   1.92402689   2.35783553
H    4.24278444   1.29456182   2.38094420
H    2.77977322   1.74037980   3.22587734
H    3.68319388   2.94945484   2.34551778
C    2.55421905   1.61845030   1.09297113
N    1.94100055   1.39093464   0.15122209
