30
Energy:    -91.79459491
C   -3.25563876  -0.67119366  -0.18739210
H   -4.15466025  -1.22932988  -0.02882193
H   -2.51924836  -1.30208466  -0.63972473
H   -3.45962831   0.15794697  -0.83222787
C   -2.72797815  -0.15322507   1.16349014
N   -2.33511084   0.23242609   2.16928337
C   -0.81510825   3.36740467   1.39607826
H   -1.09150371   2.71132376   2.19486707
H   -1.13809740   4.36185432   1.62333801
H    0.24818876   3.35619816   1.27702796
C   -1.48279650   2.89653478   0.09067642
N   -1.97992076   2.54595074  -0.88125458
C    1.22650796  -0.02135671   1.88822487
H    1.88712295  -0.70317878   2.38179015
H    0.41516401   0.22476174   2.54094670
H    1.76039255   0.86960667   1.63122176
C    0.67504931  -0.67659161   0.60831840
N    0.26446327  -1.16444378  -0.34463015
C    2.03004816  -4.16840863  -0.66185570
H    2.63526502  -3.81417618  -1.47002159
H    1.01784373  -3.85482442  -0.81020067
H    2.07095650  -5.23707093  -0.62741018
C    2.55692953  -3.59148953   0.66523148
N    2.94921665  -3.16194704   1.65330821
C    0.62928031   1.30236605  -2.88847687
H    0.48335034   0.25182601  -2.74716071
H    1.23334593   1.46495739  -3.75655974
H   -0.31929992   1.77978073  -3.01951063
C    1.33515516   1.89322917  -1.65388322
N    1.86071107   2.33315363  -0.73467214
