30
Energy:    -91.00355370
C   -2.05728269  -3.59179140   1.94414523
H   -2.73225778  -3.47234170   1.12253670
H   -1.88109498  -2.64094921   2.40213662
H   -2.48446168  -4.25997876   2.66243686
C   -0.72458097  -4.17052236   1.43367821
N    0.26767604  -4.60141386   1.05361231
C    0.42096691   1.72300139   2.26418803
H   -0.26467280   0.92398392   2.45489581
H    0.46485236   2.36670572   3.11777920
H    1.39321992   1.32019649   2.07087119
C   -0.05470507   2.52627557   1.03940774
N   -0.40886448   3.12434972   0.12750315
C    1.57645219  -1.56732195   0.02358312
H    1.85493421  -2.59139991  -0.11284369
H    0.77120079  -1.50716050   0.72561579
H    2.41507890  -1.01604355   0.39465784
C    1.12760995  -0.97343048  -1.32453912
N    0.79342650  -0.53125129  -2.32827740
C    2.05807444   2.73610464  -2.25225746
H    1.08661756   2.30730937  -2.38381092
H    2.65976570   2.52670016  -3.11191814
H    1.96690602   3.79519338  -2.13011639
C    2.72147609   2.13033804  -1.00143970
N    3.21540877   1.67931727  -0.07014902
C   -2.47698073   0.91064245  -1.78237086
H   -2.22989737   1.93683450  -1.60692891
H   -3.52119956   0.82746807  -2.00051792
H   -1.90903691   0.54378321  -2.61167973
C   -2.14711549   0.08140356  -0.52732035
N   -1.90151583  -0.53600249   0.40712180
