30
Energy:    -94.14899847
C   -0.11272300  -1.48458193   3.81505723
H    0.84476503  -1.16399657   4.16909382
H   -0.61616944  -2.02576762   4.58872306
H   -0.69556376  -0.63046007   3.53997255
C    0.07265188  -2.39638095   2.58792289
N    0.21067189  -3.07525677   1.67426559
C   -2.47749166  -2.22609796  -0.49575537
H   -2.44483283  -1.95156307  -1.52942078
H   -3.44277379  -2.62474646  -0.26292739
H   -1.72939754  -2.96545794  -0.29928377
C   -2.21190711  -0.98333923   0.37408117
N   -2.01416735  -0.05804888   1.02171401
C    0.10831209   2.17484535  -3.90128208
H    0.28575154   1.25178435  -4.41252940
H    0.19128798   2.98720200  -4.59272316
H   -0.87461260   2.16523175  -3.47859339
C    1.14818730   2.34801356  -2.77866357
N    1.92242167   2.47694516  -1.94282307
C    0.04929254   2.57863262   0.85928420
H   -0.26109951   2.02080423   0.00057328
H    0.60899857   3.43478614   0.54523102
H   -0.81219479   2.89737046   1.40805088
C    0.93036611   1.69052163   1.75737564
N    1.58636544   1.02928263   2.42604554
C    2.01151540  -0.93877631  -0.49262934
H    1.59677342  -0.99265770   0.49224937
H    2.62739699  -0.06750544  -0.57310312
H    2.60195249  -1.81139627  -0.67922396
C    0.87223466  -0.85928558  -1.52574145
N    0.02398836  -0.80010112  -2.29494037
