30
Energy:    -94.29424946
C    1.85968429   2.92316012  -1.80716301
H    2.52366451   3.13070556  -2.62015460
H    1.50587636   3.84356230  -1.39173688
H    1.02917998   2.34962805  -2.16244130
C    2.60857473   2.12521474  -0.72362885
N    3.16615771   1.53110814   0.08311158
C   -1.79971817  -3.27979279   1.18245084
H   -2.61434583  -3.96747662   1.09094722
H   -1.13334771  -3.61622032   1.94904462
H   -1.27399485  -3.22382600   0.25219184
C   -2.34298817  -1.88638585   1.54970388
N   -2.74747737  -0.84893104   1.82314047
C   -2.89769374   0.97274446  -1.24154396
H   -3.23015944   0.97969578  -0.22452949
H   -3.69929764   0.65823116  -1.87669092
H   -2.58597278   1.95726798  -1.52161997
C   -1.71412434  -0.00157586  -1.38804786
N   -0.83290312  -0.72700162  -1.49712668
C    0.31354175   0.89674568   2.23680236
H   -0.06151060   1.13373476   3.21049230
H    1.38320646   0.91917033   2.25141864
H   -0.01889621  -0.08037378   1.95462924
C   -0.20771958   1.92970722   1.22049676
N   -0.59582233   2.69879405   0.46381105
C    2.43400887  -1.57790893  -0.92622052
H    3.44285597  -1.25726094  -0.77029564
H    1.85737342  -0.76476819  -1.31505569
H    2.42143275  -2.38952803  -1.62336854
C    1.83004632  -2.04159318   0.41237059
N    1.38036875  -2.38682719   1.40901251
