30
Energy:    -94.07315297
C   -1.37125035   0.98090804   3.45399118
H   -0.37327112   0.85537129   3.08905534
H   -1.34296140   1.44664662   4.41689636
H   -1.92411338   1.59693321   2.77593915
C   -2.05260108  -0.39534646   3.56925058
N   -2.55989768  -1.42003049   3.65506644
C   -1.27825366   0.58464708  -2.98797994
H   -0.22252749   0.43359935  -3.07473833
H   -1.58649414   1.34886131  -3.67052190
H   -1.78910339  -0.32679417  -3.21864526
C   -1.61883315   1.01394054  -1.54877435
N   -1.87241005   1.33356903  -0.47722037
C    3.01602366  -1.58685037  -1.60110080
H    3.54413436  -1.09543786  -2.39136217
H    3.54072681  -2.47615919  -1.32053793
H    2.94683969  -0.93237227  -0.75743553
C    1.60032945  -1.95613701  -2.08176416
N    0.54628075  -2.23108769  -2.43963988
C    1.36678598   2.39189368   0.64577101
H    1.92154277   1.80687250   1.34925897
H    0.31929280   2.26121981   0.82064655
H    1.62155440   3.42468476   0.76124707
C    1.70928261   1.93551161  -0.78461756
N    1.96428691   1.59571442  -1.84960687
C   -1.47222103  -1.98679917   0.46663033
H   -1.69707920  -2.80039016   1.12420823
H   -1.38855065  -2.35116447  -0.53593452
H   -2.25573482  -1.25989095   0.51771533
C   -0.14133964  -1.33762598   0.88963021
N    0.84956205  -0.85428703   1.20457284
