30
Energy:    -94.08879995
C    3.08758548  -2.61442872  -0.28360375
H    2.73559775  -2.60627011  -1.29401864
H    3.80232199  -3.40124406  -0.16124180
H    3.54885926  -1.67544867  -0.05901065
C    1.90160688  -2.84517489   0.67128419
N    1.01859190  -3.01697589   1.38224165
C   -1.88559931  -1.97942650  -0.45069985
H   -2.12888114  -0.97345236  -0.17916687
H   -1.60742997  -2.52787294   0.42492987
H   -2.73651673  -2.44174018  -0.90578742
C   -0.71112415  -1.97253825  -1.44677246
N    0.16332600  -1.96740964  -2.18839380
C    1.68025649   1.26442628  -2.25024938
H    1.88793374   0.24098586  -2.48335889
H    2.43525870   1.64058048  -1.59193427
H    1.67325553   1.84117239  -3.15147854
C    0.30479142   1.36595150  -1.56513008
N   -0.71930486   1.44154164  -1.05502763
C   -2.87262686   3.47287139   0.34245513
H   -3.06661161   3.09526978  -0.63972975
H   -1.86958419   3.84227437   0.39088999
H   -3.55601076   4.26673505   0.56078062
C   -3.05350381   2.34209904   1.37213344
N   -3.18817492   1.50018764   2.13877575
C    0.06799095   0.19706802   2.31395356
H   -0.14234901   1.00752884   2.98014464
H    0.12844312  -0.71514164   2.86993752
H   -0.71362752   0.12069461   1.58722201
C    1.40866604   0.45343139   1.60088404
N    2.40685958   0.64430556   1.06997136
