30
Energy:    -96.06369054
C   -3.08479533   0.32462110   3.26401981
H   -3.98327921  -0.24640605   3.37151355
H   -2.99311313   1.00343381   4.08603366
H   -2.24242380  -0.33502068   3.25052819
C   -3.13598944   1.11888292   1.94563925
N   -3.17410578   1.71024696   0.96404499
C    2.33168459  -0.12381665  -3.32679375
H    1.63025666  -0.92871836  -3.25585525
H    3.17860646  -0.43825787  -3.90016026
H    1.86735720   0.71273797  -3.80582980
C    2.79056725   0.28318787  -1.91421666
N    3.13222624   0.58622123  -0.86248881
C    0.47224289   2.50406115   0.48277507
H   -0.47972564   2.91860158   0.22429424
H    1.03245667   2.31400071  -0.40881712
H    1.00702640   3.19598734   1.09933313
C    0.26638801   1.18511896   1.25063916
N    0.11311970   0.20310654   1.82234888
C   -2.03824911  -0.74256989  -1.15467289
H   -1.61496188  -0.90344091  -0.18521499
H   -2.01488476  -1.65674226  -1.71022853
H   -3.05121561  -0.41371086  -1.05147549
C   -1.22317753   0.33137969  -1.89891117
N   -0.61631969   1.13098397  -2.45303039
C    2.25694307  -2.23097774   1.13267180
H    1.61769436  -2.30888773   1.98718412
H    2.72882169  -1.27066891   1.12662311
H    3.00441180  -2.99540713   1.17553554
C    1.42203316  -2.40076588  -0.15017559
N    0.80040479  -2.52718087  -1.10531379
