60
Energy:   -852.72989234
O    2.00913142  -2.40992750   2.30164352
H    1.45805439  -2.77838494   1.61114727
H    1.39661049  -2.17934017   3.00012718
O    2.55283961   0.55091829  -0.79859592
H    2.47095724   1.50456662  -0.80765097
H    2.92796196   0.35038823   0.05890205
O    0.65986773  -3.26175853  -2.53269074
H    1.06910775  -2.42371981  -2.74820306
H    1.12312398  -3.90122377  -3.07371726
O    0.91768108   3.45339678   1.69837137
H    1.17914176   2.82087456   2.36753937
H   -0.03918287   3.42925224   1.70613412
O    1.36131088   1.26640829   3.29495848
H    2.03145123   0.82432399   2.77370496
H    0.53170633   0.94810730   2.93904749
O   -2.03569352  -0.07295174  -1.66117031
H   -2.16110123  -0.95864676  -2.00183011
H   -1.24224518  -0.13067024  -1.12887325
O    1.71438829  -0.84022938  -3.05292431
H    2.17266482  -0.37689343  -2.35182926
H    1.05039479  -0.22089343  -3.35585574
O   -1.06451451   0.39879207   2.24391978
H   -0.61412103   0.18825248   1.42596462
H   -1.38915977   1.29020396   2.11655357
O   -3.03790777  -0.99423041   0.82890361
H   -2.49541049  -0.49834904   1.44211664
H   -2.91111631  -0.55574958  -0.01245857
O   -1.81066225   2.96475243   1.68908108
H   -2.47769474   3.53646642   2.06913715
H   -2.05263905   2.89450294   0.76563964
O    2.04130719   3.23815434  -0.73840323
H    1.65342987   3.35194745   0.12925694
H    2.61583418   3.99619780  -0.84573774
O    0.10690328  -0.33290159  -0.05693688
H    0.23208841  -1.27768845   0.03216033
H    0.95877180  -0.00394874  -0.34388969
O    0.32483122  -3.02427626   0.18713900
H   -0.57863407  -3.32156638   0.29484650
H    0.53896262  -3.23185295  -0.72241667
O   -2.04985549  -2.67203836  -2.37471344
H   -2.27315010  -3.11787375  -1.55764418
H   -1.14801025  -2.93778202  -2.55440017
O   -0.38440630   0.85262399  -3.65026035
H   -0.83066797   0.88076114  -4.49659993
H   -1.04559194   0.52394809  -3.04113184
O    3.23075109  -0.08298427   1.78658066
H    4.11581846  -0.14091642   2.14648546
H    2.85386405  -0.95016018   1.93555703
O   -0.19085621   3.29273537  -2.35943989
H   -0.12577654   2.50038272  -2.89251940
H    0.61147351   3.29736330  -1.83744616
O    0.30708619  -1.26950783   4.12361502
H    0.82616702  -0.49768692   4.34962261
H   -0.44535802  -0.92106677   3.64544310
O   -2.38585011   2.62183251  -0.90874162
H   -1.67398472   2.99140589  -1.43113518
H   -2.49195638   1.73139482  -1.24354608
O   -2.38051458  -3.54318531   0.24700037
H   -2.68715720  -2.68239331   0.53202543
H   -2.95812418  -4.16321417   0.69215563
