60
Energy:   -849.43238737
O    2.02774122  -2.41184863   2.35458286
H    1.58110417  -2.75973907   1.58275423
H    1.33664276  -1.98191982   2.85834470
O    2.62128705   0.24573398  -0.39305917
H    2.59936499   1.20266267  -0.39928487
H    3.12198773   0.02225367   0.39153450
O    1.38854546  -2.90013537  -2.62812886
H    1.87874863  -3.44558842  -3.24328222
H    1.68382050  -2.00804896  -2.81040980
O    1.08552090   3.17191544   1.73693152
H    1.43951063   2.53045913   2.35293227
H    0.13698283   3.11901729   1.85401764
O    2.05153449   1.17159169   3.31784563
H    2.76272468   0.67918564   2.90799610
H    1.41365928   0.50487559   3.57247618
O   -3.84259222   0.85771242  -1.46926322
H   -4.69678602   1.06316004  -1.84923174
H   -3.28001931   0.68317524  -2.22376991
O    1.96978184  -0.28067342  -2.98011420
H    2.37919501  -0.12498675  -2.12901235
H    1.34683492   0.43890389  -3.08198413
O   -1.54701109   0.16379037   1.95269342
H   -1.65251039   1.11121874   2.03918756
H   -1.01598853   0.05245094   1.16411849
O   -3.43971376  -1.11818569   0.44520095
H   -2.89337053  -0.65748364   1.08198548
H   -3.64482687  -0.45819794  -0.21705024
O   -1.65553656   2.90858735   1.88696221
H   -2.16857964   3.62171527   2.26705065
H   -1.83647834   2.95661235   0.94824739
O    2.14175333   2.95183197  -0.71301879
H    1.75447996   3.08660505   0.15190167
H    2.75420068   3.67994782  -0.81783956
O   -0.12930424  -0.11476923  -0.33409122
H   -0.38765067  -0.81438376  -0.93411496
H    0.81899379  -0.21144751  -0.24682154
O    0.71290218  -3.23891270   0.09239691
H   -0.23630172  -3.34339402   0.02661337
H    1.01586729  -3.22111679  -0.81541766
O   -1.08792772  -1.81451372  -2.30361693
H   -1.54185593  -2.42204688  -1.71959255
H   -0.29096676  -2.27848401  -2.56016449
O   -2.07540506   0.46996316  -3.45212425
H   -1.34165299   1.05812360  -3.27349878
H   -1.75585307  -0.39610947  -3.19906977
O    3.82336222  -0.46680138   1.96291159
H    4.68508075  -0.77413511   2.24437032
H    3.24437400  -1.21645955   2.10081417
O    0.06328720   1.82143174  -2.17172536
H   -0.04481691   1.14068580  -1.50754894
H    0.77280761   2.37098126  -1.83884706
O    0.20443915  -0.85032536   3.74165804
H   -0.28043345  -1.07883069   4.53470011
H   -0.46184639  -0.51700927   3.14066235
O   -2.11533949   2.88516248  -0.76181700
H   -1.36953856   2.66786917  -1.32109908
H   -2.77766616   2.22927935  -0.97946938
O   -2.07779631  -3.33601712  -0.26778453
H   -2.59217306  -2.59251017   0.04661305
H   -2.64186345  -4.09591946  -0.12422778
