60
Energy:   -853.45977068
O    1.71778339  -2.42188118   2.55427862
H    1.37273624  -2.75135772   1.72444760
H    0.96052153  -2.03222975   2.99126613
O    2.34300815   2.00495747  -1.99409826
H    2.57052028   1.61073674  -1.15204120
H    1.64291316   2.62426594  -1.78780751
O    1.66380494  -2.65807150  -2.42263154
H    0.83197068  -2.86476253  -2.84873296
H    1.92789387  -1.82124206  -2.80499967
O    0.62469450   2.73520480   1.79073181
H    0.94536925   2.33045075   2.59669317
H   -0.32799658   2.73267482   1.88349581
O    1.49676309   1.13400930   3.80576826
H    2.29911035   0.67547113   3.55634197
H    0.84809807   0.43907142   3.91769186
O   -3.02015569   0.91919436  -2.12553503
H   -3.57607884   0.94848452  -2.90420272
H   -2.18204134   0.58168975  -2.44158381
O    1.98320911  -0.11695062  -3.62037254
H    2.17743141   0.64631671  -3.07637573
H    2.50747396   0.01202081  -4.41078040
O   -1.85668450  -0.10332701   1.73243294
H   -2.02773170   0.83390632   1.82499854
H   -1.15741171  -0.15646479   1.08095324
O   -3.33397498  -1.17570926  -0.31728724
H   -2.95903685  -0.80702202   0.48253959
H   -3.33256264  -0.44891177  -0.94017989
O   -2.12271439   2.61818646   1.86580766
H   -2.72864633   3.17113769   2.35908574
H   -2.27932572   2.84816387   0.94993915
O    2.34760257   0.96451233   0.54082243
H    1.84253170   1.61293031   1.03142347
H    2.84851336   0.49549616   1.20816347
O    0.08566191  -0.38087729  -0.12207352
H    0.29724452  -1.31162373  -0.05013110
H    0.90743463   0.06807622   0.07632552
O    0.61853590  -3.00621891   0.07224880
H   -0.25583599  -3.31182087  -0.16923223
H    1.10844413  -3.00644747  -0.75007821
O   -0.92141541  -2.83551328  -3.27044045
H   -0.92062048  -1.88273047  -3.17859202
H   -1.35774701  -3.15248305  -2.47963279
O   -0.61860382  -0.16192858  -2.73541976
H    0.21050879  -0.06948341  -3.20473631
H   -0.36682773  -0.22899591  -1.81436459
O    3.49290161  -0.40546673   2.62850234
H    2.93502399  -1.18272579   2.59895958
H    4.36662460  -0.74443865   2.82327920
O    0.41968344   3.66369986  -0.83707618
H    0.57374479   3.40602871   0.07182565
H    0.65328571   4.59149446  -0.86638510
O   -0.31354648  -0.97750925   3.77422383
H   -0.87646256  -1.33225987   4.46234397
H   -0.92014940  -0.69517731   3.08971420
O   -2.31407706   3.19434238  -0.73646238
H   -1.39322338   3.33646338  -0.95569279
H   -2.57254953   2.43872722  -1.26416452
O   -1.97587253  -3.46766040  -0.79824247
H   -2.49011858  -2.67798332  -0.63033485
H   -2.59251746  -4.18796427  -0.66731039
