60
Energy:   -847.88393074
O    2.25069371  -2.23855360   2.12697004
H    1.58914238  -2.66665115   1.58354187
H    1.74731076  -1.76199480   2.78706788
O    2.48502545   0.30201299  -1.16328868
H    2.27964532   1.23556477  -1.11297045
H    3.06911332   0.14446284  -0.42149952
O    0.81148967  -3.79579603  -2.22070662
H    1.13371866  -2.97331630  -2.58938997
H    1.29405074  -4.47522931  -2.69159629
O    1.60741623   3.45210844   1.66161801
H    2.04038929   2.77764443   2.18493863
H    0.69126744   3.41812358   1.93684207
O    2.70231764   1.33024445   2.95909792
H    3.20298696   0.80281607   2.33669823
H    2.09449299   0.71132166   3.36371580
O   -2.85572637   1.06046093  -1.32266770
H   -3.26156280   1.73091439  -1.87223189
H   -2.33798531   0.53280055  -1.93073890
O    1.50574607  -1.36852417  -3.16250950
H    2.00363590  -0.78984711  -2.58504051
H    0.63399772  -0.97525035  -3.20278810
O   -1.07830443   0.40257655   2.15859888
H   -1.12634185   1.35857040   2.15850811
H   -0.63335960   0.18456668   1.33961924
O   -3.21985874  -0.68248344   0.80406183
H   -2.58779243  -0.29326253   1.40840537
H   -3.25013550  -0.07539473   0.06463065
O   -1.12718486   3.14229341   1.97185158
H   -1.76044685   3.76209653   2.33386704
H   -1.22104197   3.22980685   1.02329263
O    1.54963551   2.87160739  -0.94743189
H    1.63173542   3.09150176  -0.01945672
H    2.00608928   3.57896849  -1.40297780
O    0.09784670  -0.43400942  -0.14304239
H    0.18388033  -1.36683101   0.05361450
H    0.96721160  -0.17131495  -0.44541324
O    0.26980525  -3.08393294   0.38211270
H   -0.67237635  -3.24413228   0.43560895
H    0.52627997  -3.44217264  -0.46766191
O   -1.85716645  -3.07205554  -2.47707508
H   -2.17745063  -3.18060692  -1.58160510
H   -0.98749898  -3.47189762  -2.47102064
O   -1.04916902  -0.49581461  -2.60035225
H   -1.43687609  -1.36822527  -2.66974035
H   -0.66631535  -0.47239880  -1.72336501
O    3.87707667  -0.34879984   1.11160083
H    4.78262921  -0.63425614   1.23293160
H    3.34981754  -1.07768783   1.43863592
O   -3.27113454   3.49424570  -2.58522678
H   -2.53305482   3.68330084  -2.00580609
H   -3.07348304   3.97356375  -3.38985088
O    0.84638242  -0.54736899   3.80785914
H    0.47888557  -0.67537675   4.68238297
H    0.11362326  -0.22214127   3.28486508
O   -1.20499523   3.16064191  -0.72971798
H   -0.28389790   2.99135519  -0.92759054
H   -1.64008610   2.32058734  -0.87544410
O   -2.48189273  -3.20715598   0.21388175
H   -2.77910759  -2.32169826   0.42330909
H   -3.17155432  -3.77814036   0.55237191
