60
Energy:   -848.79859821
O    1.95157433  -2.24384931   2.24256058
H    1.47901901  -2.57390291   1.47836954
H    1.26904552  -1.88784224   2.81145884
O    2.80829606   0.29811151  -0.65615780
H    2.76460788   1.25286615  -0.70875786
H    3.24977163   0.12350233   0.17501174
O    1.33120844  -3.27990264  -2.64359413
H    1.63548501  -2.39076393  -2.82547313
H    1.92510517  -3.84303891  -3.13997713
O    0.64431871   2.72097697   1.42998131
H    1.08233852   2.28457610   2.16068288
H   -0.24454743   2.88376014   1.74565594
O    1.87068556   1.21726013   3.30109984
H    2.59873423   0.76489483   2.87502164
H    1.29465788   0.51451997   3.60206533
O   -3.27718001   0.68484813  -1.77879300
H   -3.83965052   0.62751016  -2.55117318
H   -2.39475496   0.52171665  -2.11187856
O    1.92421138  -0.69606945  -3.05484887
H    2.37294344  -0.36743843  -2.27582831
H    1.06864732  -0.26717260  -3.03783462
O   -1.72098696  -0.00728665   2.02576933
H   -1.93613324   0.91765212   2.14590335
H   -1.06744093  -0.01279297   1.32642742
O   -3.52815097  -1.12638170   0.30015381
H   -2.99894830  -0.72822218   0.99127274
H   -3.53521376  -0.47559605  -0.40174362
O   -2.04114700   2.74064405   2.04564088
H   -2.58552122   3.37600209   2.51062336
H   -2.24293814   2.88300159   1.12084549
O    2.21309216   3.00371530  -0.77010957
H    1.71045201   3.05139127   0.04310118
H    2.71661995   3.81755307  -0.78907510
O    0.14845682   0.38214289   0.09568853
H    1.03737017   0.06718716  -0.06822546
H    0.26864605   1.24947311   0.48237274
O    0.55943474  -3.01662485   0.02046218
H   -0.38498969  -3.14702838  -0.06491499
H    0.90450069  -3.17936480  -0.85741995
O   -1.26865706  -2.38117496  -2.88308057
H   -1.67664348  -2.75432511  -2.10171133
H   -0.41544092  -2.81167408  -2.93715995
O   -0.67401364   0.20611765  -2.47815330
H   -0.89788220  -0.70499213  -2.66787330
H   -0.42172527   0.20398627  -1.55480185
O    3.71665841  -0.27012618   1.86984852
H    4.57351458  -0.56327000   2.17984217
H    3.14682798  -1.03060179   1.98474840
O   -0.19254277   2.99120680  -2.17050402
H   -0.27586451   2.10304811  -2.51758250
H    0.68811750   3.02113126  -1.79664061
O    0.12016504  -0.87864892   3.81519553
H   -0.31371119  -1.22090637   4.59676005
H   -0.59691049  -0.61042435   3.24066084
O   -2.43527113   3.02455267  -0.58801990
H   -1.66454896   3.17597658  -1.13509393
H   -2.87208166   2.27428626  -0.99116841
O   -2.16741667  -3.31165400  -0.45862978
H   -2.68200622  -2.56185799  -0.15990686
H   -2.71275935  -4.07227115  -0.25789422
