60
Energy:   -849.17685846
O    1.74639648  -2.33856884   2.51066504
H    1.30600014  -2.67401746   1.72979557
H    1.06392198  -1.86508479   2.98634692
O    2.63520176   0.59467259  -0.57041324
H    2.81350998   1.53270531  -0.50308839
H    3.05209198   0.21502025   0.20308433
O    1.47775252  -3.26943922  -2.38471155
H    1.71291581  -2.37010480  -2.61302637
H    2.11700051  -3.80987915  -2.84895129
O    0.69961042   3.16735333   1.41767181
H    1.04665148   2.52281399   2.03440789
H   -0.22927207   3.23505051   1.63863845
O    1.73725897   1.26957717   3.04261326
H    2.43906620   0.74244110   2.66074154
H    1.11342609   0.62828501   3.38292012
O   -3.30433742   0.61756293  -2.09936355
H   -3.84181578   0.60426293  -2.89130544
H   -2.42495620   0.39142791  -2.40232141
O    1.92445890  -0.67693172  -2.93970878
H    2.27996076  -0.18615500  -2.19877121
H    1.03485112  -0.34001062  -3.04607613
O   -1.75824770   0.30290401   1.78532147
H   -1.92157448   1.24557317   1.81583482
H   -1.10059539   0.19540457   1.09817581
O   -3.40738955  -1.09343977   0.07492142
H   -2.95374387  -0.58726830   0.74888572
H   -3.47488035  -0.49555132  -0.66952888
O   -2.05855071   3.03375538   1.69426299
H   -2.66799269   3.63133783   2.12751528
H   -2.30918863   3.06316060   0.77092783
O    2.92949591   3.30017792  -0.20564626
H    2.23302421   3.40531894   0.44250834
H    3.57752500   3.96460880   0.02849421
O    0.06189701  -0.23968848  -0.13636688
H    0.23837518  -1.17356455  -0.02251263
H    0.92678442   0.15707550  -0.24019350
O    0.45389980  -2.91251146   0.14895309
H   -0.45128105  -3.20067717   0.03130959
H    0.88751313  -3.14183899  -0.67300811
O   -1.19846678  -2.82672956  -2.94061570
H   -1.62126299  -3.11916603  -2.13317770
H   -0.29214792  -3.12335802  -2.85797474
O   -0.79808950  -0.16745213  -2.71868207
H   -0.98192705  -1.09501128  -2.86724054
H   -0.53272667  -0.11948586  -1.80025207
O    3.52556672  -0.45170745   1.81570975
H    4.38255132  -0.70420269   2.15930167
H    2.95007081  -1.18087288   2.04669474
O    0.11390657   2.92943050  -1.26925578
H    0.31837175   2.96059110  -0.33466771
H    0.94471474   3.12337798  -1.70327653
O   -0.11955721  -0.67126503   3.70998614
H   -0.61859949  -0.80200156   4.51627183
H   -0.76502738  -0.35801707   3.07636494
O   -2.59178764   3.00748168  -0.93463816
H   -1.67835040   3.04735809  -1.21796504
H   -2.93580421   2.21389765  -1.34464895
O   -2.18430017  -3.43542598  -0.43512101
H   -2.64966356  -2.62209892  -0.23975503
H   -2.80928400  -4.12741588  -0.21884101
