60
Energy:   -856.11563334
O    1.95691122  -2.19262561   2.28200933
H    1.47220446  -2.63068312   1.58244030
H    1.27942038  -1.82757628   2.85119911
O    2.64915181   0.57229349  -0.50442208
H    2.49866371   1.51715575  -0.53306617
H    3.07320254   0.42232598   0.34051731
O    1.47244840  -3.30441874  -2.50214845
H    1.76162589  -2.40727022  -2.66867998
H    2.09752349  -3.85045809  -2.97896499
O    0.74876393   3.26657324   1.82797016
H    1.10156695   2.66335950   2.48210704
H   -0.20041252   3.15965113   1.89012791
O    1.87484327   1.43914094   3.56239854
H    2.52655153   0.96397663   3.04691132
H    2.33523858   1.68285082   4.36543870
O   -3.30854264   0.51049410  -1.87168049
H   -3.85197880   0.47254485  -2.65874393
H   -2.41652437   0.36944345  -2.18891852
O    2.00993198  -0.69840526  -2.88060094
H    2.39228326  -0.25247943  -2.12483015
H    1.13521796  -0.31913302  -2.96580537
O   -1.70684418   0.09678453   1.91415538
H   -1.85992601   1.03978531   1.97371479
H   -1.03018331   0.00539846   1.24332716
O   -3.39537042  -1.27026363   0.23690840
H   -2.92473453  -0.80315683   0.92723075
H   -3.47719131  -0.63214874  -0.47185572
O   -1.97076346   2.82593347   1.86793061
H   -2.60988622   3.36360163   2.33554893
H   -2.21764052   2.90649639   0.94663089
O    1.82404891   3.16907361  -0.62924345
H    1.42907297   3.25238742   0.23867628
H    2.24498143   4.01479226  -0.78354065
O    0.14032692  -0.34294424  -0.02855717
H    0.26187253  -1.29022886   0.03555505
H    1.02756212   0.00829711  -0.10389014
O    0.48473518  -3.03093909   0.06600142
H   -0.42363170  -3.30804177  -0.05364630
H    0.90955676  -3.23479544  -0.76718587
O   -1.15629342  -2.57497757  -3.01200566
H   -1.61037376  -2.94861819  -2.25673381
H   -0.27894716  -2.95614335  -2.97724875
O   -0.68526870   0.04103892  -2.55216482
H   -0.89398937  -0.84449964  -2.84963579
H   -0.43834370  -0.06631355  -1.63361415
O    3.56657639  -0.06634127   2.00881101
H    4.46725571  -0.36322194   2.13869739
H    3.03818330  -0.86041847   2.08927217
O   -0.37586165   2.87061902  -2.27850826
H   -0.37500454   1.95450349  -2.55593113
H    0.41864055   2.96288081  -1.75268903
O    0.17087286  -0.73113037   3.73477798
H   -0.59685974  -0.49709933   3.21319578
H    0.68907476   0.07275211   3.77313955
O   -2.62073431   2.93206733  -0.73355682
H   -1.85497905   3.07574648  -1.28962069
H   -3.02316405   2.13582453  -1.08037025
O   -2.15130908  -3.49901114  -0.59154885
H   -2.62497117  -2.73241257  -0.26874440
H   -2.72063317  -4.23911493  -0.38095848
