60
Energy:   -853.91348636
O    1.73056654  -2.19828109   2.67047459
H    1.27835743  -2.64889276   1.95725101
H    1.03493529  -1.74642285   3.14812838
O    2.70836729   0.36719828  -0.50570530
H    2.62625728   1.32060465  -0.52820200
H    3.11250698   0.18105951   0.34179415
O    1.36316170  -3.29844047  -2.08357822
H    1.79611422  -2.51556684  -2.42400860
H    0.49818888  -3.29175013  -2.49346735
O    0.81116228   3.35553594   1.60330922
H    1.11662259   2.73638519   2.26631615
H   -0.14341674   3.29513551   1.64022177
O    1.69391907   1.40408703   3.28680104
H    2.39917415   0.88492627   2.90038257
H    1.06318383   0.75610664   3.60069006
O   -3.12037991   0.50378215  -2.12389426
H   -3.66033431   0.39123407  -2.90620752
H   -2.22932763   0.31479813  -2.41807572
O    2.24261560  -0.80248522  -2.93716583
H    2.52978854  -0.41139217  -2.11205385
H    2.97794763  -0.66831382  -3.53509282
O   -1.74253994   0.32933204   1.87090276
H   -1.86093295   1.27869130   1.84037524
H   -1.04886459   0.15342861   1.23521074
O   -3.45205250  -1.00266848   0.17669488
H   -2.97572857  -0.50905757   0.84429927
H   -3.43724867  -0.43758637  -0.59576541
O   -1.93128381   3.04303802   1.56853323
H   -2.49015987   3.72535950   1.94045633
H   -2.12189017   3.06145578   0.63068365
O    2.11015320   3.01971525  -0.70749000
H    1.64792879   3.17674981   0.11586933
H    2.61428200   3.81972388  -0.85605711
O    0.14976078  -0.38499270   0.06681067
H    0.22926270  -1.32701387   0.21683538
H    1.05260808  -0.07830845  -0.01711411
O    0.35015026  -3.05072458   0.42354283
H   -0.56099195  -3.28684264   0.24947390
H    0.81142893  -3.25886843  -0.38894100
O   -1.19364147  -2.77223737  -2.88374416
H   -1.64967123  -2.99799771  -2.07300315
H   -1.03052253  -1.83166392  -2.81341897
O   -0.41443722  -0.11168215  -2.53692315
H    0.43600626  -0.32782686  -2.91936164
H   -0.28327052  -0.20271444  -1.59313277
O    3.50372494  -0.27993694   2.03856470
H    4.33858615  -0.49594530   2.45399100
H    2.93339793  -1.01987459   2.24701426
O   -0.04531757   2.66750506  -2.39701192
H   -0.08634127   1.72014221  -2.52759725
H    0.72773761   2.80090672  -1.84853992
O   -0.16233571  -0.56758364   3.88160323
H   -0.67655912  -0.69127409   4.67941699
H   -0.79741957  -0.26905953   3.23061651
O   -2.40846425   2.96909519  -1.07285721
H   -1.58913673   3.03681756  -1.56311016
H   -2.82729607   2.17864627  -1.41344823
O   -2.26786865  -3.34202314  -0.39919648
H   -2.73226484  -2.54046733  -0.15820620
H   -2.90738629  -4.04069111  -0.26095001
