60
Energy:   -859.63092007
O    2.24377861  -2.44668970   2.04246760
H    1.66375894  -2.75179032   1.34481249
H    1.66235863  -2.00699334   2.66283021
O    2.48648749   0.81212183  -0.24533351
H    2.16918508   1.55569290   0.26716341
H    3.10968913   0.37115329   0.33207303
O    1.20505044  -2.67651317  -2.72860238
H    1.52856083  -1.77764265  -2.78864132
H    1.75883234  -3.17170141  -3.33221323
O    1.18131283   2.68744275   1.34691696
H    1.70480204   2.29125050   2.04349617
H    0.30463416   2.76909233   1.72241625
O    2.51655808   1.16120335   3.15576894
H    3.20263395   0.65393962   2.72193112
H    1.89829280   0.50422473   3.47570484
O   -3.68471012   0.99873401  -1.05653324
H   -4.41671080   1.08474034  -1.66727850
H   -2.96350187   0.66720566  -1.59149068
O    2.13006631  -0.13804528  -2.81800934
H    2.43162973   0.20798723  -1.97803740
H    1.56238005   0.54751594  -3.17010302
O   -1.31797631   0.02967423   2.18486116
H   -1.42542859   0.97249589   2.31045250
H   -0.83197814  -0.04923921   1.36400167
O   -3.29894542  -1.14042050   0.66662022
H   -2.72162489  -0.75382099   1.32500740
H   -3.55664564  -0.40443028   0.11151587
O   -1.39845263   2.76862997   2.31283948
H   -1.75449292   3.39272607   2.94527226
H   -1.84363725   2.97851515   1.49187011
O    0.15046795   3.47055546  -1.12881757
H    0.60057446   3.23127078  -0.31864548
H    0.46376606   4.35334657  -1.32568301
O    0.01797722  -0.32743782  -0.13290818
H    0.20059260  -1.26667995  -0.10630571
H    0.88014644   0.08285657  -0.20039587
O    0.52261982  -2.97460669  -0.07810057
H   -0.39425578  -3.24103625  -0.14582263
H    0.84701141  -2.99993257  -0.97830085
O   -1.54146147  -2.53489404  -3.05623076
H   -1.82973865  -2.89324764  -2.21676021
H   -0.59123389  -2.65016510  -3.05276981
O   -1.53024462   0.06350780  -2.34380722
H   -1.60179318  -0.81209570  -2.72384821
H   -0.96210786  -0.05119909  -1.58203639
O    4.05663041  -0.51632111   1.57302769
H    4.94002052  -0.88488019   1.57726688
H    3.48261442  -1.26714046   1.72471089
O    0.30113149   1.81195961  -3.36462738
H   -0.42456166   1.21721827  -3.17519656
H    0.30588627   2.42621888  -2.63053284
O    0.70717887  -0.87128350   3.73019746
H    0.35332317  -1.15412313   4.57341732
H   -0.05714450  -0.57337638   3.23695007
O   -2.43130953   3.26469502  -0.09835404
H   -1.63140972   3.32501291  -0.62061250
H   -2.90073139   2.51494374  -0.46406973
O   -2.18042507  -3.32613260  -0.47683194
H   -2.60055331  -2.56402912  -0.07818123
H   -2.77299661  -4.05350441  -0.28703976
