60
Energy:   -850.58398278
O    1.96659076  -2.13537464   2.51575494
H    1.48748246  -2.58160111   1.81749350
H    1.28640064  -1.72080397   3.04651327
O    2.66222196   0.48865989  -0.56876912
H    2.54362617   1.43710966  -0.61985645
H    3.11842202   0.34819299   0.26091902
O    1.37265341  -3.41703135  -2.30168171
H    1.67960032  -2.53776094  -2.52281284
H    2.07843375  -3.99671847  -2.58815823
O    0.83395833   3.35403330   1.64127297
H    1.19600859   2.75841655   2.29731576
H   -0.11449726   3.27843985   1.74591266
O    1.84469363   1.46468506   3.32446399
H    2.54390197   0.98493138   2.88041900
H    1.24565968   0.78485091   3.63303442
O   -3.32822767   0.60214234  -1.78295338
H   -2.45505487   0.39966967  -2.11881934
H   -3.88193357   0.64229799  -2.56271562
O    1.93444061  -0.85539923  -2.86389322
H    2.35326145  -0.38790008  -2.14121384
H    1.07260781  -0.44714675  -2.94639164
O   -1.61331487   0.25889564   1.97848111
H   -1.75728380   1.20518418   1.98502241
H   -0.97535951   0.11803598   1.27890741
O   -3.40602635  -1.11272941   0.39018885
H   -2.89779331  -0.63567769   1.04620156
H   -3.50138787  -0.49535163  -0.33505779
O   -1.89142859   2.98039660   1.80286822
H   -2.14275637   3.05229655   0.88205522
H   -2.44401235   3.61931672   2.25305054
O    1.91176106   3.10163613  -0.79544789
H    1.52360386   3.23196914   0.06975679
H    2.40117244   3.90707346  -0.96271730
O    0.14524492  -0.35541029   0.00298289
H    0.26730313  -1.29434593   0.14345886
H    1.03254632  -0.01017453  -0.09571027
O    0.52993492  -3.01732730   0.31276226
H   -0.39187514  -3.25761650   0.21917184
H    0.92920267  -3.26862888  -0.52010305
O   -1.20616860  -2.74474290  -2.97966161
H   -1.54137187  -3.29253188  -3.68944879
H   -0.33136929  -3.09045477  -2.80234463
O   -0.75299101  -0.07322929  -2.51178606
H   -0.97355772  -0.96441273  -2.78266289
H   -0.48698826  -0.15954828  -1.59634987
O    3.63539213  -0.10970816   1.92836887
H    4.49333238  -0.30859696   2.30335370
H    3.10408072  -0.88207951   2.12171449
O   -0.33417613   2.77086136  -2.37140297
H   -0.35368194   1.83830563  -2.58632433
H    0.47523779   2.88550426  -1.87346927
O    0.09540298  -0.61766161   3.88469117
H   -0.39161525  -0.84575823   4.67653523
H   -0.57505544  -0.32970739   3.26517545
O   -2.54558892   3.05163206  -0.79720204
H   -1.77781336   3.12840329  -1.36364596
H   -2.97258961   2.24298443  -1.08002935
O   -2.05756166  -3.34896301  -0.38905074
H   -1.93494192  -3.15620555  -1.31858870
H   -2.61680264  -2.64115295  -0.06891595
