60
Energy:   -851.47685860
O    1.48504084  -2.28710746   2.79058722
H    1.09893458  -2.71087302   2.02405179
H    0.75941525  -1.80818656   3.19100466
O    2.47542502   0.69461661   0.22327486
H    2.03173469   1.47150737   0.56358572
H    2.91868602   0.31888745   0.98391875
O    1.89020566  -3.19480568  -1.95924605
H    2.16687922  -2.28549383  -2.07254016
H    2.58878603  -3.71022154  -2.36243807
O    0.99773409   2.75385834   1.26898301
H    0.04556061   2.84601707   1.23575217
H    1.17561812   2.41556639   2.14656359
O    1.52645674   1.37249186   3.54874201
H    2.28261582   0.82388107   3.34021983
H    0.83436937   0.75122843   3.77518996
O   -2.99820207   0.51658016  -2.02351237
H   -2.12787365   0.33675442  -2.37907247
H   -2.97935454   1.44765457  -1.80220476
O    2.40918439  -0.56391065  -2.26088924
H    2.58423288  -0.07140259  -1.45900042
H    1.55476799  -0.24801997  -2.55485787
O   -1.89542634   0.27452393   1.76723327
H   -1.98052682   1.22029929   1.64682266
H   -1.21400932   0.01405182   1.14750997
O   -3.38207312  -1.25809508   0.00214170
H   -3.02729693  -0.74399415   0.72744573
H   -3.38007425  -0.65622878  -0.74215986
O   -1.76332335   2.97160428   1.18684610
H   -2.12989958   3.72197420   1.65460532
H   -2.08645850   3.06616800   0.29081417
O    1.75648874   3.54413885  -1.27965701
H    1.53244647   3.44004257  -0.35488629
H    2.66116017   3.23796172  -1.34335173
O    0.03915778  -0.47608206   0.05478172
H    0.16885868  -1.41765516   0.16813793
H    0.90973620  -0.09746019   0.17713591
O    0.40555418  -3.13351740   0.36741226
H   -0.46018537  -3.38657575   0.04696203
H    0.99017988  -3.28557737  -0.37509863
O   -0.60284787  -2.64678465  -3.04904589
H   -1.19595705  -2.96584046  -2.36885714
H    0.25952134  -2.96775295  -2.78535948
O   -0.31305353   0.00181219  -2.58331500
H   -0.46304236  -0.87711688  -2.93148003
H   -0.25035688  -0.12265767  -1.63631540
O    3.40300489  -0.41814156   2.55823117
H    4.22266964  -0.74918367   2.92537236
H    2.78885188  -1.14701916   2.64646598
O   -0.39026336   2.80491585  -2.80054651
H   -0.25825380   1.86204854  -2.89957459
H    0.39874331   3.11212848  -2.35409303
O   -0.42373477  -0.57771645   3.86854836
H   -0.99740364  -0.76358713   4.61191097
H   -1.01549700  -0.28170180   3.17686589
O   -2.63256774   3.18710344  -1.39939103
H   -1.82892503   3.13191227  -1.91644437
H   -3.20935790   3.75342737  -1.91205288
O   -2.05780560  -3.45403236  -0.82123920
H   -2.55334378  -2.69079420  -0.52435323
H   -2.70611119  -4.15648009  -0.87122811
