60
Energy:   -848.14700999
O    1.95742348  -2.26561501   2.19658795
H    1.45310353  -2.71376753   1.51757945
H    1.29940432  -1.81660083   2.72727515
O    2.58431142   0.45559531  -0.74433826
H    2.50394770   1.40938380  -0.75215008
H    3.09943104   0.26457218   0.03949450
O    1.17158376  -3.41933489  -2.61098327
H    1.50034250  -2.54037527  -2.79960863
H    1.73031177  -4.00042752  -3.12710944
O    0.99388169   3.30657080   1.65155117
H    1.38739920   2.66128607   2.23890407
H    0.05292700   3.23448209   1.81167405
O    2.06980878   1.29774469   3.14005603
H    2.73285780   0.80718202   2.65431318
H    1.42443759   0.63921537   3.39709107
O   -3.32577180   0.63030903  -1.69178620
H   -3.97266394   0.60004976  -2.39665979
H   -2.48692981   0.48549709  -2.12951382
O    1.83622347  -0.85318268  -3.05838549
H    2.26269273  -0.40667810  -2.32695574
H    0.98546044  -0.42208658  -3.13956603
O   -2.03486824   0.49159298   2.97448262
H   -2.38405782   0.04694258   2.20209379
H   -1.94100026   1.40488004   2.70369229
O   -2.53113957  -0.73362656   0.56546836
H   -1.60174478  -0.53992420   0.44325308
H   -2.97167711  -0.24410295  -0.12917196
O   -1.72254382   3.05349468   2.00667858
H   -2.15037445   3.82155492   2.38519707
H   -2.00398146   3.04851389   1.09180159
O    1.95459164   3.10900034  -0.83757888
H    1.60484733   3.21895139   0.04662784
H    2.47083617   3.90020916  -0.99156597
O    0.10211375  -0.47603668  -0.12229233
H    0.28491414  -1.41251336  -0.04595562
H    0.96507567  -0.06813561  -0.19402307
O    0.43766013  -3.16442452   0.03744590
H   -0.49407496  -3.37469857  -0.02489506
H    0.78843776  -3.36931829  -0.82927519
O   -1.44736130  -2.55323222  -2.94228054
H   -1.85768119  -2.86878523  -2.13711240
H   -0.59112776  -2.98080996  -2.95881069
O   -0.79038846   0.04830008  -2.61318542
H   -1.07246574  -0.82255696  -2.89295724
H   -0.46790162  -0.07900434  -1.72098159
O    3.72733955  -0.31529401   1.62999004
H    4.59247815  -0.58950241   1.93425439
H    3.15974673  -1.06365630   1.81444636
O   -0.36750542   2.87961708  -2.31499863
H   -0.38577155   1.97136398  -2.61661845
H    0.46929354   2.96392905  -1.85795285
O    0.26162564  -0.70082109   3.74262682
H    0.13335308  -0.87100016   4.67580262
H   -0.55653553  -0.29338693   3.45830031
O   -2.46843334   3.01679367  -0.58256234
H   -1.73545998   3.13577110  -1.18657084
H   -2.93634783   2.25318430  -0.92048039
O   -2.29566769  -3.26132493  -0.38001584
H   -2.48103807  -2.40348924   0.00206740
H   -2.98498942  -3.83049283  -0.03779471
