60
Energy:   -847.23086972
O    1.94902921  -2.41344524   2.09597714
H    1.43163754  -2.66849259   1.33211291
H    1.30724304  -2.06621890   2.71547390
O    2.67953406   0.82346911  -0.72539558
H    2.67832661   1.76289979  -0.54181893
H    3.12419252   0.43254020   0.02672495
O    1.44798403  -3.08614741  -2.69271022
H    1.67368377  -2.17688727  -2.88901982
H    2.10864467  -3.60246293  -3.15442189
O    0.84304925   3.31728168   2.20838859
H    1.19760126   2.56358392   2.68004992
H   -0.10329317   3.17361380   2.20315113
O    1.88843682   1.04437470   3.28302704
H    2.55225903   0.63032985   2.73153924
H    1.30623167   0.32812493   3.53651329
O   -3.36352650   0.73789798  -1.90150391
H   -3.98751453   0.80181520  -2.62454289
H   -2.53016266   0.52550087  -2.32177052
O    1.86617735  -0.46007197  -3.11671283
H    2.25409161   0.07304400  -2.42278074
H    0.98924942  -0.09583054  -3.23736705
O   -1.50671418   0.09714859   1.84494457
H   -1.70099052   1.01569264   2.03139937
H   -0.87919734   0.12638729   1.12272606
O   -3.24771242  -1.15764971   0.10827652
H   -2.76555752  -0.70226973   0.79848488
H   -3.39164051  -0.49128976  -0.56364681
O   -1.89651653   2.78510907   2.14116601
H   -2.44472883   3.34768308   2.68816290
H   -2.23305735   2.91140766   1.25402409
O    2.26748362   3.46779968  -0.05876342
H    1.81222675   3.46521769   0.78323798
H    2.68863549   4.32632082  -0.10124173
O    0.16890842  -0.04603016  -0.31514958
H    0.23378347  -0.99798701  -0.23898382
H    1.07587933   0.25130257  -0.38746041
O    0.41537552  -2.73928417  -0.16925543
H   -0.46315524  -3.10859912  -0.25882108
H    0.85409817  -2.96177929  -0.99038284
O   -1.25923620  -2.74277470  -3.20146050
H   -1.65832830  -3.09407550  -2.40550503
H   -0.34132580  -3.00872276  -3.14720211
O   -0.93136539  -0.09061938  -2.81588831
H   -1.10196942  -1.00358899  -3.04743229
H   -0.57708918  -0.13050304  -1.92755870
O    3.59169378  -0.34586047   1.59167749
H    4.46825657  -0.57549037   1.90012461
H    3.06987086  -1.13387530   1.74322056
O   -0.14463405   2.74829380  -1.17028257
H   -0.09388013   1.82481123  -0.92363338
H    0.68497626   3.12201004  -0.87310459
O    0.12697390  -1.05441579   3.67560910
H   -0.37006563  -1.27454744   4.46347051
H   -0.52156299  -0.67973454   3.07958418
O   -2.72995028   2.99430083  -0.40964801
H   -1.84738726   3.10395328  -0.76361226
H   -3.09747576   2.26165660  -0.90400547
O   -2.17307405  -3.48724940  -0.69527530
H   -2.61374454  -2.68887233  -0.40435362
H   -2.77626354  -4.19292052  -0.46198885
