60
Energy:   -856.12170705
O    1.83524648  -2.68341822   2.25563343
H    1.29577020  -2.98004739   1.52268846
H    2.27697819  -3.47458680   2.56410905
O    3.12246476   0.77029284  -1.36154181
H    2.81504850   1.66035219  -1.18972375
H    3.16709524   0.36082119  -0.49749728
O    1.06450820  -3.01671857  -2.53180636
H    0.16336162  -2.95763820  -2.84910150
H    1.48344100  -2.21650028  -2.84863097
O    1.09291941   3.06622028   1.74626429
H    1.49269862   2.48366045   2.39204481
H    0.15282598   3.00198963   1.91458133
O    2.24647751   1.21923488   3.43286076
H    2.73280897   1.40314555   4.23653384
H    1.61529410   0.54462990   3.68335521
O   -3.26571095   0.63200076  -1.55879948
H   -3.86705323   0.58289058  -2.30190614
H   -2.39777864   0.51161567  -1.94406921
O    1.84770242  -0.48232873  -3.37915861
H    2.35388431  -0.05963255  -2.68537213
H    2.36004447  -0.33457589  -4.17408413
O   -1.49736533   0.00259183   2.20210395
H   -1.59760575   0.95222410   2.26830247
H   -0.89838165  -0.12479703   1.46642570
O   -3.41862324  -1.11410562   0.58199623
H   -2.86778505  -0.71683453   1.25652185
H   -3.45757427  -0.45754264  -0.11344588
O   -1.61664070   2.74253283   2.13986718
H   -2.13779868   3.33849977   2.67787240
H   -1.94425889   2.87380933   1.25011179
O    2.03323807   3.22761499  -0.77510045
H    1.71308529   3.18143429   0.12578877
H    2.47091615   4.07705267  -0.83100552
O    0.18862860  -0.48556612   0.14995120
H    0.19217361  -1.44112051   0.09395939
H    1.07097776  -0.25911714   0.44391153
O    0.29524548  -3.18838040   0.05742581
H   -0.63405807  -3.38444694  -0.06167361
H    0.66735482  -3.24588769  -0.82260794
O   -1.55241182  -2.38175120  -2.97035079
H   -1.32110646  -1.47532864  -2.76755081
H   -1.93728621  -2.71804443  -2.16102366
O   -0.61050811   0.16905623  -2.33600902
H    0.16689324   0.00109659  -2.86861445
H   -0.32867817  -0.00597762  -1.43814105
O    2.72801117  -0.28338335   1.17226510
H    2.70154382   0.30127168   1.92970145
H    2.60536494  -1.15849658   1.54018707
O   -0.35945326   2.93335272  -2.08671354
H   -0.38398235   1.99426883  -2.27042969
H    0.49305605   3.07519687  -1.67520417
O    0.53546613  -0.80239904   3.87273176
H   -0.27388429  -0.58597077   3.40976032
H    0.89665426  -1.54583658   3.38995271
O   -2.48461136   3.01386301  -0.38382713
H   -1.75336719   3.16329101  -0.98314765
H   -2.93254944   2.24590630  -0.73854647
O   -2.39072956  -3.33519919  -0.50913237
H   -2.79632915  -2.58145967  -0.08064952
H   -3.03907917  -4.03474131  -0.42841399
