60
Energy:   -852.35994883
O    1.58664175  -1.77317912   2.00323651
H    1.13357984  -2.57019862   1.72805170
H    1.11506714  -1.48698807   2.78550495
O    2.54851735   0.68148712  -0.94374040
H    2.47642820   1.63188442  -1.03194451
H    3.04578685   0.55245735  -0.13608564
O    0.75096827  -3.52104224  -1.87539448
H    1.12537009  -2.69334563  -2.17701255
H    1.23426628  -4.19259273  -2.35672059
O    0.88474176   3.55951204   1.29053873
H    1.23862367   2.97048277   1.95690497
H   -0.06450080   3.50303845   1.39999718
O    1.92744845   1.69540080   3.00669371
H    2.59123722   1.19485180   2.53228142
H    1.40157985   1.03263692   3.45439686
O   -1.84405407  -0.35893804  -1.57179175
H   -1.94509618  -1.27431723  -1.83275779
H   -1.08797602  -0.35879492  -0.98478425
O    1.71358530  -1.17311190  -2.81039096
H    2.16006683  -0.57139475  -2.21472111
H    1.06532203  -0.63000790  -3.25874867
O   -1.47126311   0.61517947   2.13553905
H   -0.84557147   0.42549806   1.43642334
H   -1.67857389   1.54330786   2.02676512
O   -3.21967065  -1.01173275   0.76633514
H   -2.74887284  -0.44082480   1.37349689
H   -2.94963322  -0.71319913  -0.10210560
O   -1.86218989   3.23137414   1.43975732
H   -2.47262136   3.94473439   1.62609684
H   -2.04498024   2.99014448   0.53166713
O    1.99851844   3.34981533  -1.14156016
H    1.59810145   3.46702729  -0.28007340
H    2.52006178   4.14152973  -1.27351731
O    0.23652820  -0.22675460   0.17999707
H    0.64301973  -0.88462281   0.74409450
H    0.97196158   0.19942718  -0.26016050
O    0.14936905  -3.73192451   0.82701887
H   -0.80690451  -3.76757759   0.80462266
H    0.41040675  -3.71193931  -0.09368290
O   -1.94172616  -2.99112143  -2.07748638
H   -2.26051049  -3.34453860  -1.24700176
H   -1.01951336  -3.24567652  -2.10842363
O   -0.33746052   0.43748191  -3.71037551
H   -0.83847250   0.34083645  -4.52023876
H   -0.93899378   0.15610020  -3.02101790
O    3.58089239   0.02722545   1.53099521
H    4.43618633  -0.30335123   1.80562803
H    2.97979159  -0.70036112   1.69076839
O   -0.22543236   3.03992439  -2.75222967
H   -0.11839411   2.18661754  -3.17251776
H    0.57943406   3.16210813  -2.24874876
O    0.26996538  -0.32980486   3.97436498
H   -0.10723214  -0.38495259   4.85238127
H   -0.43730978   0.01718592   3.43068208
O   -2.27446900   2.40768660  -1.08843734
H   -1.61433824   2.74994333  -1.69119729
H   -2.33430996   1.47645257  -1.30163700
O   -2.60781813  -3.62696909   0.53205533
H   -2.86755223  -2.72234862   0.70650258
H   -3.33326663  -4.15383755   0.86726564
