60
Energy:   -852.25070865
O    2.12070978  -1.69486735   2.61913816
H    1.65472944  -2.23217874   1.97852077
H    1.43232352  -1.19956329   3.06301889
O    2.72454185   0.46812408  -0.92056718
H    2.57500674   1.40196060  -1.06828466
H    3.20084069   0.42959805  -0.09117764
O    1.00466453  -3.63283369  -1.98850774
H    1.28939702  -2.79745821  -2.35905741
H    1.54891929  -4.28743984  -2.42612559
O    0.92387604   3.66169484   1.11294697
H   -0.01937002   3.56020959   1.24030260
H    1.31798584   3.13063140   1.80495921
O    2.00773910   1.94914881   2.92465346
H    2.68016851   1.42077821   2.49465921
H    1.38996944   1.30948964   3.27881252
O   -3.02250223  -1.30543920  -2.15335754
H   -3.77887183  -1.41749732  -2.72918725
H   -2.60113907  -2.16481328  -2.14066400
O    1.73220702  -1.21974373  -2.92385619
H    2.24708428  -0.66627478  -2.33665488
H    0.89991636  -0.75711777  -3.02133098
O   -1.58813361   0.56147575   1.73172537
H   -1.73078866   1.50338628   1.63852703
H   -0.91652356   0.35499252   1.08169732
O   -3.24121671  -1.36661885   0.63251936
H   -2.77978628  -0.62610016   1.02615101
H   -3.23678144  -1.18049747  -0.30640077
O   -1.79548981   3.27875105   1.40870491
H   -2.22051332   3.94924621   1.94351618
H   -2.07884967   3.46971631   0.51457332
O    1.96898706   3.07690786  -1.28398020
H    1.60463243   3.31318467  -0.43095568
H    2.48970640   3.83764961  -1.54157524
O    0.27819173  -0.26970658  -0.02905110
H    0.38741523  -1.19429449   0.19329836
H    1.15773866   0.02622070  -0.26369146
O    0.61253895  -2.88659034   0.62956617
H   -0.25780521  -3.24499868   0.80356714
H    0.84885389  -3.23655331  -0.22945247
O   -1.77208656  -3.68002872  -1.91178240
H   -1.88434407  -3.85625311  -0.97766513
H   -0.82512937  -3.70653664  -2.04890012
O   -0.67923520   0.07626808  -2.53301762
H   -0.38256652  -0.02300867  -1.62838307
H   -1.54364286  -0.33457213  -2.54855976
O    3.73199337   0.21847409   1.62791662
H    3.21953972  -0.51671544   1.96424899
H    4.61406276   0.07249590   1.96978766
O   -0.45530942   2.80912979  -2.58763716
H   -0.55885411   1.86221486  -2.68177782
H    0.41335983   2.91826457  -2.20068086
O    0.19875226  -0.00411000   3.69645184
H   -0.25806787  -0.04669785   4.53653129
H   -0.48924705   0.18534317   3.05848922
O   -2.48894256   3.83533430  -1.14319130
H   -1.77028875   3.49122090  -1.67361991
H   -3.07898164   4.24542435  -1.77557718
O   -1.99334140  -3.73462294   0.84631997
H   -2.47403934  -2.90688528   0.84290072
H   -2.50031759  -4.30417498   1.42495411
