60
Energy:   -846.24133976
O    2.32976397  -2.53451015   1.50480807
H    1.58330137  -2.92627052   1.05143267
H    2.82660350  -3.28137839   1.83882927
O    3.09261163  -0.58804930  -0.28070571
H    3.46560728   0.13754762   0.21990911
H    2.94587079  -1.27663002   0.36779684
O    0.34273506  -3.56289115  -2.53725758
H    1.03559169  -2.91035254  -2.63911485
H    0.58453879  -4.26580261  -3.14031503
O    0.30407605   2.50429307   2.80035202
H   -0.25314948   1.74897044   2.61268402
H    1.07551981   2.13295399   3.22838667
O    2.62720031   1.28349610   3.67143196
H    2.83160324   1.37780654   4.60178502
H    2.14589569   0.45810419   3.61393486
O   -3.47299376   0.39263550  -1.88975612
H   -3.05234707   1.12405040  -2.34177431
H   -2.97262307  -0.37691896  -2.16113585
O    2.12125899  -1.54513335  -2.74874321
H    2.61223496  -1.23706737  -1.98698879
H    1.50847506  -0.83570855  -2.94224811
O   -0.95791128   0.20719379   1.75837679
H   -1.74701959   0.68017163   1.49411954
H   -0.34979659   0.32869718   1.02922297
O   -4.60703644  -0.96535910   0.33220989
H   -4.58584860  -0.20248278   0.90996645
H   -4.55261701  -0.59940405  -0.55059658
O   -3.00326163   1.52691374   0.60268855
H   -3.19785695   1.12170116  -0.24239563
H   -2.53488580   2.33166071   0.38079161
O    1.33827618   3.16877793   0.40146498
H    0.93468586   3.10757297   1.26725979
H    2.24886766   2.90950052   0.54228483
O    0.70883446   0.65354987  -0.29418037
H    1.55125886   0.19928170  -0.28027291
H    0.92590911   1.56742996  -0.10996954
O    0.20442635  -3.56399685   0.22793826
H   -0.65216509  -3.16834806   0.38901273
H    0.24547025  -3.66875180  -0.72262665
O   -1.71620297  -1.73907957  -2.22102534
H   -1.82733867  -1.83416432  -1.27506573
H   -1.15201376  -2.47077018  -2.47112779
O    0.02486294   0.25549069  -2.85123928
H   -0.60299882  -0.45995158  -2.75042354
H    0.28215929   0.47689026  -1.95624617
O    3.66946900   1.72930641   1.16407484
H    3.36804288   1.58667206   2.06130925
H    4.53764552   2.12037584   1.26188123
O   -1.74021540   2.30087899  -2.96178748
H   -1.06431119   1.62630661  -3.02764678
H   -1.73030481   2.73464519  -3.81500522
O    1.11076091  -0.89350578   3.33373086
H    0.27308454  -0.66839498   2.92894046
H    1.50029345  -1.53424628   2.73879568
O   -1.38008016   3.47129443  -0.45543344
H   -0.44162595   3.58779344  -0.30723252
H   -1.44562523   3.18733014  -1.36718997
O   -2.05786972  -1.95899180   0.47553423
H   -1.67829577  -1.25104088   0.99607334
H   -3.00100818  -1.79780398   0.50274059
