60
Energy:   -847.32902368
O    1.42930852  -2.45443100   2.65961280
H    1.10572547  -2.86711896   1.85885409
H    0.65825423  -2.03581246   3.04232111
O    1.93740242   1.69434576  -2.09994833
H    2.16999832   1.35202455  -1.23684510
H    1.48820183   2.51971398  -1.91769029
O    1.92200701  -2.78176981  -2.06293168
H    1.17522035  -2.76493339  -2.66147830
H    2.48072877  -2.06192456  -2.35599253
O    0.50128546   2.73135246   1.69526581
H    0.79834417   2.33512235   2.51440540
H   -0.45405158   2.71051525   1.75120146
O    1.27371913   1.12659491   3.74616787
H    2.06476842   0.63664969   3.52160933
H    0.60182310   0.45552732   3.86640040
O   -2.84493832   1.06104642  -2.25263526
H   -3.26355411   1.03968246  -3.11317942
H   -1.95103431   0.75865398  -2.41302944
O    3.27793179  -0.56367886  -3.02098175
H    2.89774453   0.29042464  -2.81556337
H    3.73175089  -0.43047804  -3.85317020
O   -2.19919996  -0.14029938   1.71219088
H   -2.29825299   0.81104337   1.74916812
H   -1.44467337  -0.28097243   1.14023585
O   -3.40044388  -1.09445049  -0.58564392
H   -3.15630749  -0.77836804   0.28425329
H   -3.31900155  -0.32674108  -1.15152487
O   -2.24385882   2.60292104   1.71277451
H   -2.81962449   3.18130988   2.21296656
H   -2.34757288   2.88770880   0.80482563
O    2.13972602   0.86414869   0.49497274
H    1.65473256   1.53874928   0.97029078
H    2.64932893   0.41488342   1.16928532
O   -0.09202358  -0.60090552   0.11174800
H    0.13242106  -1.53107145   0.13719978
H    0.73534156  -0.14971516   0.27945618
O    0.44748206  -3.22923074   0.17221966
H   -0.38911380  -3.43341326  -0.24569028
H    1.07421266  -3.19312009  -0.55037056
O   -0.43212621  -2.44738707  -3.39602295
H   -0.38928000  -1.50747715  -3.22005310
H   -1.01758841  -2.79140358  -2.72139823
O   -0.32056305   0.14391305  -2.46345015
H    0.45847833   0.69317471  -2.55084580
H   -0.28194783  -0.18625786  -1.56582669
O    3.25110526  -0.47603890   2.62002404
H    2.67723018  -1.24204782   2.63140740
H    4.12487531  -0.82824141   2.78946765
O    0.48176759   3.76636660  -0.90088796
H    0.57894695   3.48035330   0.00739856
H    0.73851216   4.68843743  -0.89091480
O   -0.61517273  -0.92495860   3.76927197
H   -1.15100632  -1.26148671   4.48750803
H   -1.24723067  -0.67214338   3.09635365
O   -2.26838301   3.35767083  -0.85218870
H   -1.34112746   3.50363744  -1.03959936
H   -2.50728564   2.60571387  -1.39414637
O   -1.95269008  -3.29439920  -1.23406552
H   -2.48713325  -2.53542973  -1.00046824
H   -2.58282243  -4.00602128  -1.34702166
