60
Energy:   -849.37285086
O    1.87558837  -2.24655992   2.57040252
H    1.40271513  -2.65547045   1.84554741
H    1.19196438  -1.84519823   3.10687142
O    2.73985161   0.42056199  -0.81387869
H    2.66694754   1.37373373  -0.76508839
H    3.21355856   0.17511255  -0.01915349
O    0.90249110  -3.32446711  -2.31276963
H    1.29321478  -2.50130054  -2.60596522
H    1.37726337  -4.00090711  -2.79573139
O    0.69908712   3.55499768   1.50956806
H   -0.25298151   3.46258901   1.54503374
H    1.03267705   2.77220020   1.94794884
O    1.44496187   1.08285702   2.31996713
H    2.31925945   0.70203806   2.23742923
H    0.93545766   0.66708333   1.62443169
O   -1.80330316  -0.09233364  -1.51596003
H   -1.86244901  -0.98904434  -1.84557123
H   -1.05663953  -0.10550934  -0.91716820
O    1.89019418  -0.94084817  -3.05856857
H    2.34387126  -0.47056596  -2.35910907
H    1.21103224  -0.33453612  -3.35413009
O   -2.40180465   0.52389566   2.77435751
H   -2.21778962   1.38663209   2.40279839
H   -3.05434970   0.68982659   3.45471309
O   -3.19102229  -1.08628489   0.69148413
H   -2.92654243  -0.53628305   1.42889869
H   -2.86782079  -0.62316919  -0.08136545
O   -2.01305283   3.01542812   1.63149936
H   -2.51428071   3.80805765   1.82317853
H   -2.13144348   2.87803128   0.69163894
O    2.14837128   3.11656166  -0.71813320
H    1.63132475   3.31555901   0.06244017
H    2.70251817   3.88718118  -0.84182084
O    0.29549030  -0.19536451   0.17293844
H    0.31993571  -1.13933574   0.32963108
H    1.12404691  -0.00346217  -0.26626456
O    0.37647707  -2.92349113   0.36340876
H   -0.52209876  -3.24564116   0.43420907
H    0.64541570  -3.15589936  -0.52534895
O   -1.78329802  -2.66836449  -2.28665441
H   -2.07029799  -3.13158114  -1.49970258
H   -0.88187309  -2.96058847  -2.42182131
O   -0.23484076   0.73125928  -3.60367562
H   -0.73849180   0.69692613  -4.41693371
H   -0.84783803   0.43869895  -2.92923167
O    3.66162385  -0.41973607   1.68465905
H    4.50910483  -0.58756071   2.09677885
H    3.10301223  -1.13714548   1.98383903
O   -0.01916793   3.21567014  -2.41834457
H    0.02215586   2.40823249  -2.93075909
H    0.76515102   3.19240632  -1.87013437
O   -0.06016223  -0.65791670   3.75842328
H    0.52444190   0.04009275   3.46303767
H   -0.92998051  -0.38000441   3.47134703
O   -2.27229274   2.62085126  -1.00667989
H   -1.53550696   2.97086077  -1.50755104
H   -2.30591431   1.69438370  -1.24492199
O   -2.29823549  -3.58871653   0.28242033
H   -2.67850042  -2.74030579   0.51008157
H   -2.87372217  -4.22949295   0.70009544
