60
Energy:   -851.86732622
O    2.71978831  -2.64273179   0.60504274
H    1.84460367  -2.79248470   0.96261478
H    2.63600087  -2.84438092  -0.32691710
O    2.66715176   0.70302487  -0.48667130
H    2.56546330   1.65152527  -0.40768844
H    3.18715599   0.45298784   0.27707534
O    2.12988333  -3.06043417  -2.07657150
H    2.22081934  -2.17236614  -2.42196646
H    2.61696093  -3.60834544  -2.69202295
O    0.63313430   3.21334387   2.03426283
H    0.86564370   2.40619770   2.49326860
H   -0.32393552   3.22687411   2.04239531
O    1.25414951   0.61832871   2.77857252
H    2.15105190   0.30390785   2.66482955
H    0.82268033   0.41867959   1.94778589
O   -3.19720343   0.59806887  -2.12416432
H   -3.59112058   0.64207665  -2.99544180
H   -2.27410170   0.40468972  -2.28762549
O    2.17281177  -0.50596998  -2.89912040
H    2.52789553  -0.03889136  -2.14282354
H    1.24642224  -0.26568127  -2.91631418
O   -2.16617448   0.36540326   1.74589894
H   -2.28184133   1.30277636   1.90141321
H   -1.40256962   0.30987765   1.17139361
O   -3.54749850  -1.18781750  -0.04947249
H   -3.24217815  -0.64190346   0.67508889
H   -3.57146842  -0.59658632  -0.80187065
O   -2.13200277   3.10625103   1.84728644
H   -2.73396636   3.75475925   2.21240118
H   -2.30407771   3.12235777   0.90581811
O    1.89780228   3.31550503  -0.33585711
H    1.44609698   3.34002190   0.50770267
H    2.31754830   4.17270610  -0.40832397
O    0.20277843  -0.05408275   0.32216288
H    0.23112379  -0.98162741   0.55687396
H    1.09035529   0.14535289   0.02439688
O    0.08116255  -2.56634197   1.32429203
H   -0.24819440  -2.27223120   2.17355918
H   -0.67580867  -2.97056571   0.90022883
O   -0.59977768  -2.67949851  -2.44989602
H   -1.09777736  -3.04297414  -1.71769821
H    0.29875323  -2.97235522  -2.29787963
O   -0.52352712   0.00585325  -2.30988826
H   -0.62691490  -0.92657125  -2.49996029
H   -0.34329260   0.04073236  -1.37045715
O    3.66546421  -0.42085937   1.82470480
H    4.51717761  -0.59837016   2.22383642
H    3.40207740  -1.25661538   1.43951508
O   -0.17902870   2.90375115  -2.12768474
H   -0.10301916   1.99140174  -2.40710011
H    0.58008216   3.04556761  -1.56211366
O   -0.73643603  -1.20258475   3.52202065
H    0.00677500  -0.60402725   3.59684132
H   -1.42374094  -0.68112993   3.10737782
O   -2.55407211   2.95745704  -0.80374507
H   -1.74067373   3.09200704  -1.29006925
H   -2.95403281   2.18997246  -1.21268358
O   -2.04145766  -3.41344003  -0.19887207
H   -2.62796654  -2.65845064  -0.15164718
H   -2.61677308  -4.17120500  -0.09381843
