7
Energy:    -91.58870265
C    0.57488016   0.88658160  -0.45795511
H    1.58603591   0.99752729  -0.12605860
H    0.04764261   1.80563432  -0.30875136
H    0.56640450   0.63531957  -1.49800062
C   -0.10940288  -0.23421865   0.34650963
N   -0.61888271  -1.06870538   0.94547019
Na  -2.04667759  -3.02213875   1.09878588
