7
Energy:    -94.81393265
C    0.05408350   0.09905523   1.18026050
H   -0.83578702  -0.31705634   1.60438524
H    0.14359338   1.12407354   1.47390065
H    0.90502082  -0.44761441   1.52948403
C   -0.01870924   0.00948018  -0.35540793
N   -0.07290675  -0.05721252  -1.49878288
Na  -0.17529470  -0.41072568  -3.93383962
