7
Energy:    -92.93011360
C   -0.10076331  -0.29843458  -1.14229478
H   -0.82868953   0.37019095  -1.55212827
H   -0.43351119  -1.30773861  -1.26672676
H    0.83170591  -0.16515944  -1.64987532
C    0.08375625   0.00007173   0.35718730
N    0.22113944   0.22232326   1.47361987
Na   0.22636243   1.17874669   3.78021797
