7
Energy:    -90.48791568
C    0.82740584   0.17077018   0.81429425
H    0.95568918  -0.75525183   1.33480054
H    0.41055412   0.89859015   1.47868257
H    1.77626216   0.51446618   0.45870481
C   -0.12291689  -0.03863272  -0.37928739
N   -0.83047536  -0.19454269  -1.26796317
Na  -3.01651904  -0.59539927  -2.43923161
