7
Energy:    -96.81699258
C    0.75304117  -0.88801230  -0.14210791
H    0.21748445  -1.73700031  -0.51264609
H    1.22147100  -1.13928306   0.78651235
H    1.50005784  -0.59992100  -0.85194492
C   -0.22549365   0.28090383   0.07630613
N   -0.95405730   1.15121503   0.23892532
Na  -2.51250352   2.93209781   0.40495512
