7
Energy:    -93.68583239
C    0.37697598   0.04394609   1.08487930
H    1.10175167  -0.74074288   1.14703721
H   -0.36151683  -0.09142010   1.84724631
H    0.86120570   0.98834024   1.22104228
C   -0.30021164   0.00891608  -0.29779558
N   -0.80440861  -0.01716536  -1.32725987
Na  -0.87379626  -0.19187406  -3.67514965
