7
Energy:    -93.25066437
C   -0.08201002   0.82528873   0.80502409
H   -1.06181033   0.72687646   1.22360091
H   -0.00973088   1.75547810   0.28117052
H    0.64515828   0.80033885   1.58956399
C    0.17756375  -0.33594137  -0.17260882
N    0.37082823  -1.20052997  -0.90050095
Na  -0.03999903  -2.57151079  -2.82624973
