7
Energy:    -93.79915973
C    0.52620356   1.00846891   0.19023287
H    0.00639390   1.74286043  -0.38887610
H    1.57050281   1.04663819  -0.03972646
H    0.38275443   1.20841198   1.23155136
C   -0.02221080  -0.39121215  -0.14403439
N   -0.43053022  -1.43333833  -0.39291156
Na  -2.03311367  -3.18182902  -0.45623573
