7
Energy:    -92.81227071
C   -0.42661098   0.58363825   0.88859289
H    0.03861906   0.39297132   1.83310722
H   -1.48030417   0.41617256   0.96974086
H   -0.24787720   1.59876755   0.60142426
C    0.16309407  -0.36194756  -0.17428784
N    0.60215628  -1.06597917  -0.96565085
Na   1.35092294  -1.56362296  -3.15292655
