7
Energy:    -93.29585500
C    0.18042583   0.41780873  -1.05127114
H   -0.21604249  -0.14623902  -1.86953955
H    1.24135141   0.50538146  -1.15928515
H   -0.25911189   1.39333832  -1.04436430
C   -0.14329075  -0.30045809   0.27194477
N   -0.38431246  -0.83524038   1.25713917
Na  -0.41901964  -1.03459102   3.59537620
