7
Energy:    -92.36999747
C    0.05943798  -0.90005354   0.75666520
H   -0.25170895  -1.78915266   0.24913143
H   -0.64297830  -0.66595786   1.52913506
H    1.02593476  -1.05562407   1.18861528
C    0.12717856   0.26656911  -0.24633171
N    0.17761450   1.13517270  -0.99310850
Na  -0.49547855   3.00904632  -2.48410677
