7
Energy:    -94.69117604
C   -1.15672063   0.05538480   0.23139045
H   -1.27873491   0.73427067   1.04939209
H   -1.50539119  -0.91476267   0.51799438
H   -1.72115857   0.40355481  -0.60830387
C    0.33308505  -0.02652090  -0.14988439
N    1.44231309  -0.08750342  -0.43376083
Na   3.88660715  -0.16442328  -0.60682783
