7
Energy:    -91.67028498
C   -0.22761848   0.90054697   0.65734747
H    0.01378943   1.76312804   0.07204730
H    0.31061107   0.93455829   1.58149641
H   -1.27874122   0.88778946   0.85704058
C    0.16311806  -0.37151684  -0.11775163
N    0.45403917  -1.31862617  -0.69484815
Na   0.56480197  -2.79587975  -2.35533199
