372
 energy: -510.808964484882 gnorm: 0.002911657404 xtb: 6.4.0 (d4b70c2)
O         1.98694777973777   -3.67991859181656    4.83169062448062
H         2.09451484987451   -4.63323854944541    5.03935085057293
C         0.90801323640433   -3.58972883080170    3.90511866129627
H         0.76302847248784   -2.53731778700851    3.67699320646424
H        -0.00408954686285   -4.00245370327034    4.33512767850898
H         1.15053999811409   -4.12507307381369    2.98963111268032
O         1.82964474636241   -6.69719838934864    2.30860497727403
H         0.92015755426339   -6.33530102491822    2.20087017185748
C         1.85527961236107   -7.98020140235564    1.72967142780054
H         2.86327041041633   -8.37423988542274    1.85679990160906
H         1.62183075802868   -7.93346606909876    0.66265948723804
H         1.14260398846763   -8.65198619353293    2.21789641341624
O         1.23430723032589    4.02451901945487    5.48256338997596
H         1.94930180515376    4.65356987398702    5.61861003971256
C         1.71006699098993    2.97330779178282    4.64610287557324
H         0.87803503258919    2.29096421433130    4.49046542587624
H         2.53363732965781    2.43575994172467    5.12231396910208
H         2.03059148017856    3.36698558382043    3.68118129045514
O         1.32837112646547    0.07938227120270   -7.75989966847620
H         1.69320609187099    0.92105198695918   -7.39932299295042
C         0.47683369975894    0.40639369266175   -8.84335708543511
H         0.08869828689838   -0.52957148200752   -9.24383314448598
H         1.03097214988710    0.92622722954032   -9.62855280165265
H        -0.35402823011108    1.03090965382095   -8.50855646890770
O         0.25324315560184   -1.65467844583750   -5.92284767703342
H         0.58116323297722   -0.96392429265116   -6.53432046822388
C         0.92130557357397   -2.85759601628362   -6.25971049002216
H         0.64631110796113   -3.60654852296272   -5.51977782444995
H         2.00322869770256   -2.71797703389568   -6.24463426890922
H         0.61978017838573   -3.20123343319203   -7.25336650917651
O         3.53440211040658   -0.62967012246307   -1.04378825433077
H         4.50330735618461   -0.68320827744305   -1.17511694584449
C         3.28333668068667    0.50111921536832   -0.21883080999438
H         2.21150728503443    0.53389619067099   -0.03250683055465
H         3.59625404704896    1.42321597021154   -0.71038235089619
H         3.80799572450135    0.40535863147527    0.73139395971282
O        -5.47912004045113    3.77434469490747    2.23611810340973
H        -5.20299799463117    2.99231187947143    2.74732905486348
C        -6.76420047310709    3.53525982686539    1.72338472600802
H        -7.04677057875986    4.41284774311466    1.14293326982347
H        -7.49764431103334    3.39154792195424    2.52484655971060
H        -6.78057429054205    2.65816322667537    1.06819701477924
O         2.57195746207431    6.26613877784879   -4.98834932782245
H         2.90600609613703    6.09918692463245   -4.07373426221532
C         3.69537930375168    6.38109891174337   -5.82752350510249
H         3.33377370215275    6.58663102240302   -6.83531142463359
H         4.28116963557033    5.45587684587830   -5.83452440033001
H         4.34230619319667    7.20288778299230   -5.51047662033243
O        -1.03160540982909   -1.34534400457619    8.12924634000798
H        -0.15903932421906   -1.60765662631869    7.78317601424106
C        -1.58868031123661   -2.46087792535581    8.77574602213223
H        -2.58212504687351   -2.17248894544734    9.11918634331969
H        -0.98884430940921   -2.76373546192311    9.64098349916387
H        -1.68024252574666   -3.31427024994580    8.09653585443824
O        -2.33483354699297   -7.15720382309620   -5.39453173810079
H        -3.07906516935720   -7.38747348107447   -5.95835443948454
C        -2.09269775657727   -5.76183784861702   -5.50818406671025
H        -1.29815816641987   -5.51754916999262   -4.80467813281689
H        -2.98692985841827   -5.18566996696188   -5.26362456516564
H        -1.76436564162867   -5.50822804550007   -6.51975139292301
O         4.45002425917292   -4.12098658840885   -6.47643246752058
H         4.01777039402543   -3.77601130158831   -5.66625564445609
C         4.56682028543235   -5.51666001279004   -6.35323393792219
H         5.04415219202194   -5.88155147001175   -7.26201286350283
H         3.58558209582581   -5.98999185206847   -6.25220028526358
H         5.18499811367009   -5.79110986556908   -5.49225025463863
O        -4.76119372557043    1.57434645687471    3.86123134292065
H        -3.87003655118298    1.90933673381248    4.12013657812390
C        -5.56415965220198    1.56059244271631    5.02316113608696
H        -6.56359717546392    1.24470079531897    4.72466991499206
H        -5.62381166828299    2.55439214829897    5.47369613540990
H        -5.17095901156663    0.85566156348080    5.76048233558712
O        -0.63344774631886    0.54735865169793    4.22672190635585
H        -1.25034323164373    1.30114985113163    4.30347147142330
C        -1.21683476849276   -0.53034546846313    4.94328620553575
H        -0.47880997723961   -1.32704559288959    4.98143945157508
H        -2.11650451032730   -0.89399564091298    4.44324799641881
H        -1.46239687432158   -0.23882991428192    5.96516325381857
O         5.59537086957259   -5.24749449440478   -0.59010049737399
H         5.81737388641046   -4.97130308865220    0.31708371707289
C         5.03802404239335   -6.53570844567693   -0.52068144833742
H         4.74945311783730   -6.81564377807295   -1.53368454050390
H         4.15208752062280   -6.55343350057103    0.12083152101455
H         5.76283990057092   -7.26567706858083   -0.14489478477197
O         5.47575134493479    3.19292965521931   -0.43717226626561
H         6.04181658784060    2.54599562242371    0.03334429461876
C         6.19443012901993    4.41071480995945   -0.56147372638563
H         5.64721947439307    5.03739028147896   -1.26288546937796
H         7.20060897671466    4.23151555732976   -0.94482850099004
H         6.26096094507624    4.93140452071971    0.39691135333889
O         2.01028906713622   -2.74039420335445    0.23773501172852
H         2.49012073631653   -2.00573081087327   -0.17936300762666
C         2.96476376844854   -3.64472305958564    0.75448567209804
H         2.42713061920322   -4.52537026382302    1.10172214954910
H         3.50418759153048   -3.20505997032843    1.59818186367349
H         3.68025157915463   -3.94827088863610   -0.01124584669425
O         6.14273384208494   -2.11344267574406   -5.32220646693291
H         5.90868227148370   -2.79562838165314   -5.97244680943183
C         6.30319795187876   -0.87926712999183   -5.99849034526250
H         6.30920091930621   -0.10099705370384   -5.23776914276116
H         5.48693658245379   -0.69305568993806   -6.69716330156886
H         7.25309282305456   -0.85876032935730   -6.54111243424089
O         6.22216113946412   -0.43759704342390   -1.54083466363563
H         6.28240002117333    0.32961745220042   -2.15114873205884
C         6.98290788567170   -1.51153783046331   -2.07365804659281
H         6.74495088394110   -2.39992454659356   -1.48986995145693
H         8.05165442399998   -1.29926489524637   -1.99168296458634
H         6.73485682013809   -1.69219215680115   -3.11888964552396
O        -4.20881463816447   -0.21491538166032   -0.28861878297939
H        -3.51949812367908   -0.13063307946090   -0.97091291325444
C        -4.08472320800047    0.89517558677718    0.58288258362801
H        -4.82581651877887    0.76853926924788    1.36808602381532
H        -4.28288002944997    1.82965988082855    0.05283094204108
H        -3.09001581312521    0.93930445830947    1.02917658091776
O        -4.53707631733787    0.63053568945153   -3.84785885446611
H        -3.71815380236775    0.44354721734406   -3.34152538740654
C        -5.53677421203847   -0.28648010797235   -3.42824608954023
H        -6.48017967554901    0.05250641423961   -3.85371463052876
H        -5.61537113968742   -0.30078646091537   -2.34096477547550
H        -5.31581966166345   -1.29195663635678   -3.79356033494256
O        -0.25134513923289    6.80090990134784    1.65784805708872
H        -0.48846896139170    7.28869618720619    2.45272269663840
C        -0.49140604835461    7.60640315620136    0.51812684957367
H        -0.28948582609689    6.98118683951452   -0.35061533017880
H         0.17360311145647    8.47395558707050    0.50416555222813
H        -1.52959131013143    7.94803983820842    0.48738847983213
O        -4.12761067187265   -1.15984042385545    3.41603339628062
H        -4.27800518247075   -0.19915282880819    3.46062802343762
C        -5.37633909198652   -1.78455542686698    3.25444268015568
H        -5.19535806027223   -2.85637073594058    3.22772040138801
H        -5.85705343804988   -1.47835855741589    2.31904156123357
H        -6.04961127711591   -1.55758471273803    4.08876963043318
O        -4.38914333777030    0.88708387910868   -6.56709180834606
H        -4.45479422468946    0.75066003108858   -5.59616268562282
C        -5.51635087787809    1.63765648474091   -6.98029409133804
H        -5.36000081953579    1.90512650103652   -8.02438669303294
H        -5.62309158535521    2.54446061352802   -6.38284955831474
H        -6.42854963541710    1.04097401015739   -6.89612837815050
O        -4.05554213338831   -1.59295319372787   -7.77168838682972
H        -4.22895639461009   -0.70622801583928   -7.39956352186417
C        -2.78454567050348   -1.56610336387961   -8.37876043731584
H        -2.61216922829657   -2.55547592346505   -8.80153968058331
H        -1.99888566242034   -1.34460243066942   -7.65109059986730
H        -2.74505757188107   -0.82485674959845   -9.18251924293363
O        -4.10551099579425   -3.00141817884043   -5.35293747618398
H        -4.24053320462928   -2.67092695301737   -6.26023937948647
C        -2.89873388742482   -2.44617272568382   -4.88228026967559
H        -2.75522388531361   -2.80431052931422   -3.86552282810904
H        -2.93915038147318   -1.35443296549254   -4.87464993443757
H        -2.04934425175094   -2.76061841124484   -5.49107079104313
O        -0.43527997812781    5.42069470284788   -1.91914710270944
H        -1.22120302119514    4.95076850693434   -1.56938038431359
C        -0.68476751866927    5.77125504207251   -3.25969758724276
H         0.18998030292347    6.31284053095127   -3.61918023957811
H        -1.56474291726108    6.41695010794641   -3.34495833262255
H        -0.83376860380768    4.88144708651807   -3.87692549246288
O        -0.78423658819576    4.05265791001953    1.33533829819071
H        -0.56500584989309    4.99635927241158    1.41936235297575
C         0.37078128988641    3.36661010013869    0.88218999355270
H         0.13541771580555    2.30509743210419    0.91577807167595
H         1.22796491295224    3.56827930928082    1.52511941081302
H         0.61760291186773    3.66265681578427   -0.13906278004502
O        -1.25857046264076   -8.27181498054088   -3.05142340705180
H        -1.67831411073585   -7.92067604669106   -3.85651509874006
C         0.09106079365712   -8.53512354194069   -3.34875120157482
H         0.57219852035523   -8.83594139136696   -2.41869305542198
H         0.59297860701799   -7.64884080495668   -3.74507919184294
H         0.18387526582083   -9.34866716815144   -4.07475460103799
O        -5.19188794704044    3.38495329475585   -4.10987823946279
H        -5.02130738463726    2.44884575129966   -3.91114808118265
C        -3.96285745027528    4.06972285152744   -4.11062779992846
H        -4.19065583779346    5.12815855197284   -4.23295119370356
H        -3.32651723987001    3.75359012172693   -4.94502359633072
H        -3.41957547122788    3.92785808063649   -3.17237665461007
O        -2.30800636603666    0.13446467502421   -2.34304812299593
H        -1.66566096283979   -0.54337165117837   -2.64653588613619
C        -1.59013924365852    1.27516523633151   -1.88627743630775
H        -2.31551859889185    2.04722084558094   -1.63812935618389
H        -0.92893839766034    1.65283845302602   -2.66733408885276
H        -1.01078325371100    1.03758056172845   -0.99293407965283
O         3.66025248199998    5.72277638000762   -2.57770518972183
H         3.53893762357456    4.75546538073378   -2.49397701674932
C         2.98783950973754    6.35804845247641   -1.50282696426786
H         3.06063116431491    7.43113227034632   -1.67547513083111
H         3.46437767451095    6.12133404022423   -0.55005547381210
H         1.93512704497129    6.07081687229300   -1.46744348212330
O        -2.45583965381356    2.61273313550135    7.49209576914874
H        -1.49596911830514    2.72960342189530    7.68075344370660
C        -2.92413890685834    1.54114854993058    8.28550758720985
H        -3.97196703770515    1.38439232315390    8.03012972840137
H        -2.85431591814062    1.78999060309599    9.34771074850231
H        -2.36064437578949    0.62414591888119    8.09728852348851
O         4.12668893598493   -5.47134799366325    6.77977728063533
H         3.55856787963656   -5.94131024532780    6.14855450878027
C         3.44884524971494   -5.38778418173316    8.00987663159048
H         4.11289852965321   -4.87483434638450    8.70491144518697
H         3.22175517264510   -6.38075852081135    8.41199145969842
H         2.51812550650828   -4.81825020845281    7.92087852564967
O        -0.39566458014192   -1.61998767603311   -3.24368128005218
H        -0.18836866987948   -1.56254279224685   -4.19922334471973
C         0.79293937118067   -1.33289399440960   -2.51390863418392
H         0.62262303672857   -1.63546527914130   -1.48261425398488
H         1.01084505011873   -0.26333065386197   -2.54124948268943
H         1.63675291744186   -1.88736089120457   -2.91871982943527
O         2.10999792214358   -6.40166748049722    4.99702389743925
H         2.10244695078002   -6.54800787050886    4.02264694749947
C         0.92759849084175   -6.96574694078006    5.53956559038641
H         0.98269966482019   -6.85102207990840    6.62108846660340
H         0.86083300763173   -8.02934963150719    5.30031740549102
H         0.03732499562249   -6.45132293259334    5.17230508349584
O         3.80431673739671    3.63310629473236    1.76313461908745
H         4.12252830195461    3.44119078441071    0.86061552545737
C         4.71637302693486    3.04975719494971    2.67245642627074
H         4.45757864940646    3.40648573185243    3.66750785831498
H         5.74441854378463    3.34647340710239    2.45072312669555
H         4.63848768019252    1.96177489011468    2.65315566127863
O         3.77942883061384   -2.85578777237560   -4.13644657994112
H         4.63140277484330   -2.40080923158337   -4.28256255328461
C         3.85539558162975   -3.60109181915971   -2.93621211452158
H         2.95732259633441   -4.21328919966709   -2.88944143133933
H         3.88197232712381   -2.93140974054166   -2.07526380387744
H         4.73713495584543   -4.24364833359523   -2.91162402203403
O        -2.58227373160448    4.13838943967020   -0.70863548421233
H        -2.01227082346559    3.96915747090384    0.07464502163971
C        -3.63649373750540    4.98813405817434   -0.29581445433956
H        -4.32873930666729    5.07465220172204   -1.13280194433558
H        -3.25793801509502    5.98327437151908   -0.04309883283523
H        -4.16090979048673    4.57717234648635    0.56814343456002
O        -2.78121637173234   -6.79684964272309   -1.23600077946734
H        -2.08573761919741   -7.28950637495325   -1.70735031309320
C        -3.95723031486936   -6.91327592782141   -1.99970149086732
H        -4.75906976522224   -6.42861302564179   -1.44226880430637
H        -4.22378127780797   -7.96168411224478   -2.16444889852869
H        -3.85427879560060   -6.41552023499884   -2.96892679717385
O        -4.76106325288596   -4.77538089886428    1.94986188378441
H        -4.33804123648547   -4.11402623281480    1.35995242138249
C        -5.98848339582852   -5.15525653267638    1.37774622561848
H        -6.48521957499275   -5.82282838051147    2.08185141695937
H        -5.83941505650045   -5.68414970709401    0.43083415834247
H        -6.62852504690041   -4.28699359616648    1.20167143918005
O        -2.43847120218509    2.52903690449916    4.81607566186820
H        -2.50279354289456    2.55123634597362    5.80376620441339
C        -2.08180395738735    3.82249894776718    4.35422662134087
H        -1.91041722732732    3.74571072884067    3.28168562952420
H        -1.17020904337330    4.16730396055402    4.84344635208286
H        -2.88828559711641    4.53380232465762    4.54505120618418
O         1.44062617699576   -2.31878899742037    7.20715192028295
H         1.60340770887523   -2.76325738991354    6.35274359146297
C         2.60818766654189   -1.62116887501683    7.57875032322359
H         2.40926321197529   -1.15888421361004    8.54435474188285
H         2.85596854660218   -0.83656351882538    6.85786909472319
H         3.45649863891427   -2.30348041632011    7.68119675218690
O         7.05945479275325    1.19022965708703    0.56345277335833
H         6.82447006306876    0.51956148477122   -0.10801200057489
C         7.17981285512693    0.56451456126031    1.82105999499403
H         7.49518724149611    1.32894303503625    2.52997504072903
H         7.93512541618489   -0.22513457768316    1.79641865636928
H         6.22640013733186    0.14326880762072    2.15191430387699
O         0.18944008348578   -4.45169699038406   -3.38181305027408
H        -0.19796944248586   -3.56697967020015   -3.29385746151033
C         0.32214181032281   -4.99427623218547   -2.08295146819538
H         0.93874806093069   -5.88773956073361   -2.16838702769980
H        -0.65376317457783   -5.27378199989451   -1.67913745152085
H         0.80856862191152   -4.29140160125436   -1.40420718281679
O         4.19316668422468    6.37742184777808    1.79239369790203
H         4.02087562807824    5.41591889676442    1.82385603861926
C         3.10389881736795    7.03236007688956    2.38719455358945
H         3.26360476491481    8.10261787630718    2.25734931414717
H         3.04355829370740    6.81658552150823    3.46167676843838
H         2.15772434545146    6.74999009392178    1.91692590194545
O         3.75049099108303    0.55135652523593   -3.61049503580588
H         3.48221746316656   -0.03582381258382   -2.88223834217884
C         3.00973813470861    0.22752718877975   -4.77295398249675
H         1.95662579008630    0.49844762629171   -4.65866542921135
H         3.08362289434415   -0.83440748340476   -5.00034924836446
H         3.43164182787766    0.80482532700293   -5.59164691694376
O         2.46479348638139    2.40393866637032   -7.00432842054256
H         1.89248033549995    3.11349873728077   -6.62819078614277
C         3.20370010210479    2.91542283643821   -8.08926764104477
H         3.80519346679161    2.09414080456144   -8.47885571534816
H         3.86761933337445    3.72339951665883   -7.76914420148460
H         2.54543920643251    3.29009686881350   -8.87987582333453
O         6.13323473121110   -4.22894013061081    1.99249060104306
H         5.47510513841116   -3.97004364381747    2.66114847094282
C         6.87110188213772   -3.08236270220678    1.64200117888339
H         7.61091178190584   -3.38819704838540    0.90351955503189
H         7.39019558953030   -2.66237966742538    2.50885298503606
H         6.22513275590570   -2.31457640423998    1.20645183959382
O         3.11527022321394    3.02747465126499   -2.59569755206908
H         3.49817884056642    2.22346832248634   -3.00252799403853
C         1.72647845454550    3.00176764810400   -2.85499269350668
H         1.27452246961047    2.10800661586295   -2.41783721453820
H         1.52444421824988    3.03205211358316   -3.92866911390762
H         1.28199489170837    3.87750218073164   -2.38796640574434
O         6.39699426137161    1.98187334676780   -2.77873245919305
H         5.82726157128362    2.44118848609329   -2.13439210314329
C         6.27407730085055    2.61838572906418   -4.03219631140769
H         7.07217221435879    2.23472526469624   -4.66740239683620
H         6.38572632155006    3.70083054103936   -3.93775733082002
H         5.30994098762879    2.39302999390781   -4.49340266053764
O         4.44698426167494   -2.94858481561986    3.91539798087147
H         3.54104715909329   -3.22218430865698    4.19041123411147
C         5.24184392119040   -2.88774364615231    5.09180599441114
H         6.27471825254032   -2.73998837923413    4.77946426036351
H         5.16298836855511   -3.81390357326318    5.66150422694222
H         4.93404447189371   -2.04745663150815    5.71803104922455
O        -0.68721094785842   -5.78729933063167    2.13900920394120
H        -1.47917348204903   -6.23964033464919    2.48810486290441
C        -1.14280739897010   -4.82406844007691    1.20692882634103
H        -0.26890788638146   -4.31321854064599    0.81013991607951
H        -1.79225648492685   -4.09156003980315    1.68906819013572
H        -1.68349117805864   -5.30973089425542    0.39309288092626
O        -1.97710001963146   -5.18779997001456    5.02576021091180
H        -2.39724743461530   -5.83835814014885    4.44502438471222
C        -2.79589158212276   -4.03781225326305    5.06051364585706
H        -2.32710097005249   -3.33095799867927    5.74112129083663
H        -3.79696425293942   -4.27423591218255    5.43050985129320
H        -2.88009559202076   -3.57467758785327    4.07624314461369
O        -3.15188485236094   -6.76722436802087    2.85920845088469
H        -3.73922647966080   -6.03569579440095    2.55982117621103
C        -3.39581766560493   -7.88324828470035    2.02494549026595
H        -2.71885106556348   -8.67574821833100    2.34219441263742
H        -3.20334014844596   -7.64050823129969    0.97709527832401
H        -4.42553963608661   -8.23305870952508    2.13404250764435
O        -1.80543630156461    1.92924755808169   -6.91834879278672
H        -2.72487958744782    1.61156814967709   -6.95300335699638
C        -1.25749455718662    1.51346343365016   -5.68749551883335
H        -1.87111398988388    1.85449787768207   -4.84964053799830
H        -0.26942908258678    1.96499339189649   -5.60962165302273
H        -1.16329446499821    0.42372756732006   -5.64194639511325
O         0.23611304615115    2.79508950888727    7.77453806229442
H         0.54780078662432    3.28938319819601    6.99255766527525
C         0.81829155508330    1.50466071720763    7.73037909181127
H         0.40368617988205    0.93524285756529    8.55990127476025
H         1.90441103692497    1.56379483134651    7.83703406604955
H         0.58013596053061    0.99414447301693    6.79589892335072
O         3.98411701860644   -0.58074203534688   -8.47549807374742
H         3.05699442542838   -0.47579073140079   -8.19722841377765
C         4.14048607365254   -1.86688340921015   -9.02820966500830
H         5.15800485963559   -1.92454789391056   -9.41369196016305
H         3.44236079814615   -2.03512162680099   -9.85465548078001
H         4.00169256621901   -2.64886989253588   -8.27537906487718
O        -0.64287477384873    0.23581549161870    1.42580551634549
H        -0.54960360885609    0.36112216898168    2.38902042351510
C        -0.99974143228560   -1.11275406198805    1.20108941138805
H        -1.27060163701839   -1.20416524006709    0.15067738042267
H        -1.85425683403300   -1.40882982873304    1.81296572463873
H        -0.15931070386956   -1.78347003782518    1.39950591988119
O        -3.77085937354351   -2.89616614069444    0.24179904299984
H        -3.96377230001647   -1.93770174531684    0.26120939009780
C        -3.45349175231346   -3.25671046277805   -1.08441807970494
H        -4.27449131248053   -3.02054567278345   -1.76628679515771
H        -3.27451130478578   -4.32921620138664   -1.09295407994449
H        -2.54767767838740   -2.74611633982403   -1.42079495697305
O         3.92939372874454   -0.34617000035536    3.13384118753012
H         4.17277650953873   -1.27049819698505    3.35043040277054
C         2.51099914616519   -0.28666983626647    3.05585479788961
H         2.24316387209329    0.72448357669689    2.75822350403962
H         2.05957630764904   -0.49568497037372    4.02741490330713
H         2.13494146063066   -0.98993839395553    2.31241530024189
O         0.91119121763581    4.32271666067104   -5.92249282293082
H         1.46709416868173    5.05001836096681   -5.55943922294331
C        -0.02526892115935    4.86480410982892   -6.82922907836464
H        -0.67288986576551    4.04883799939292   -7.14862858430575
H         0.47327148578768    5.29612758488848   -7.70357616552807
H        -0.63005709260080    5.63820725031445   -6.35079097737843
O         4.33559740341833    0.88296424487007    5.59852430860552
H         4.22642117843402    0.51911043212990    4.69683730777558
C         5.70082376464441    1.11180467155591    5.82394502872323
H         5.79805593271574    1.50101704074523    6.83701078024302
H         6.10811561302470    1.84586852385482    5.11986220601345
H         6.28560112416598    0.18881417384421    5.74464657983995
