90
Energy:   -537.48500577
O   -3.39550645   2.44885183  -0.81544067
H   -2.53175623   2.85918994  -0.66058117
C   -3.75942930   1.75289721   0.36597420
H   -4.73446341   1.29681348   0.17418965
H   -3.85933529   2.41827734   1.23779150
H   -3.05101450   0.94937797   0.62147888
O    1.67913228   3.35803003   0.71340524
H    1.87173245   2.56949908   1.24212765
C    2.57394618   3.36727065  -0.38739286
H    2.34324409   4.26179189  -0.97228045
H    2.45164431   2.49031201  -1.04219293
H    3.62906133   3.42490654  -0.07725181
O    1.92820237   0.86760129   2.02036407
H    1.20325344   0.38709841   1.59376202
C    2.13041834   0.29285147   3.30149838
H    2.95017369   0.84584295   3.76806755
H    2.42000704  -0.76843084   3.25055161
H    1.24579501   0.38083540   3.95148123
O   -2.41026071  -1.30341057  -2.51090853
H   -1.86354185  -0.67668659  -3.00763664
C   -3.75929909  -0.87825876  -2.61988175
H   -4.36122521  -1.59511218  -2.05482306
H   -4.12102860  -0.87372788  -3.66003009
H   -3.92611002   0.12165350  -2.18961797
O   -0.88307280   3.71582354  -0.42008505
H    0.00468808   3.63262967  -0.04142599
C   -1.10693359   5.08952955  -0.69458809
H   -2.11111652   5.16521621  -1.12046763
H   -0.39368107   5.49850672  -1.42724480
H   -1.07210207   5.71530240   0.21093519
O   -1.56313980  -1.02981206   4.15848066
H   -1.55422153  -0.09166492   3.91718479
C   -2.83635508  -1.55113868   3.81253964
H   -2.82913874  -2.60843858   4.09101773
H   -3.04447600  -1.48380696   2.73322066
H   -3.65879426  -1.06050864   4.35627973
O   -0.75888063   0.62236963  -3.77701698
H    0.19057707   0.76478321  -3.64789794
C   -1.39389103   1.89026315  -3.73528460
H   -2.46247580   1.71142203  -3.88234794
H   -1.04779960   2.56566406  -4.53330193
H   -1.26301261   2.39976550  -2.76778497
O   -1.40818273   1.51654548   2.97836287
H   -1.05299077   1.14132292   2.15893016
C   -0.98693358   2.86928242   3.05037455
H   -1.39566059   3.27658287   3.97910152
H   -1.36629567   3.47786477   2.21461785
H    0.10894995   2.97209598   3.08567319
O   -2.40356156  -2.08797279   0.20943293
H   -2.47053691  -1.88757790  -0.73596617
C   -1.70591977  -3.31622279   0.34070235
H   -1.63942963  -3.52686313   1.41154076
H   -0.68207095  -3.26888788  -0.06212557
H   -2.23019407  -4.15660554  -0.14061940
O   -0.46371434  -0.12305917   0.86218748
H   -1.09037252  -0.85971730   0.80689183
C   -0.24487890   0.35568571  -0.45517662
H    0.46313200   1.18496109  -0.37450372
H   -1.16403741   0.73628076  -0.92748200
H    0.19588885  -0.40636458  -1.11682643
O    0.39041395  -2.78137968   3.17099448
H   -0.30362983  -2.19033870   3.49870939
C    0.83965558  -3.56561716   4.26446935
H    1.62098349  -4.22551978   3.87776477
H    0.04311749  -4.19404277   4.69270488
H    1.27532763  -2.95794781   5.07298970
O    2.95053778  -0.76807675  -1.06718049
H    2.57327464  -1.30069999  -0.35135351
C    4.15912529  -0.19921168  -0.58943314
H    4.57070352   0.39734395  -1.40809665
H    4.90618585  -0.95917198  -0.31169551
H    4.00358526   0.46685524   0.27366563
O    1.92504196  -2.53376368   0.83201485
H    1.38227320  -2.59991257   1.63167081
C    2.33238733  -3.84588226   0.47853449
H    2.94265289  -3.75296696  -0.42392210
H    1.48256008  -4.50772159   0.24931913
H    2.94575947  -4.32509472   1.25757708
O    1.98847387   0.84979068  -3.16857682
H    2.35925153   0.32720018  -2.44204645
C    2.67795841   0.48815574  -4.35447943
H    2.24789626   1.08599721  -5.16263618
H    2.55202471  -0.57510382  -4.61215587
H    3.75584110   0.70804678  -4.30354646
O    2.25810901  -2.83315743  -2.95759627
H    2.54489173  -2.12493730  -2.36211058
C    0.84961670  -2.73531954  -3.09583861
H    0.54341695  -3.54018004  -3.76957928
H    0.53129540  -1.77900550  -3.53958666
H    0.31826345  -2.86906897  -2.14056266
