90
Energy:   -536.35267329
O   -1.96446543   0.94009302  -2.43748387
H   -1.12277366   1.40814073  -2.54193278
C   -2.66342368   1.54618060  -1.36200770
H   -3.60886935   1.00689379  -1.25814521
H   -2.89406832   2.60672056  -1.54865010
H   -2.12104489   1.47147372  -0.40648614
O   -3.06844818  -1.59908314  -2.81659210
H   -2.69113896  -0.71094828  -2.73128385
C   -4.38166291  -1.46085769  -3.33514256
H   -4.79186892  -2.47039473  -3.42487108
H   -4.39796423  -0.99578889  -4.33325207
H   -5.04228918  -0.88171255  -2.67110856
O   -1.36776745   3.54297737   1.45609239
H   -0.72743736   3.25465421   2.12337824
C   -0.63968725   4.09768182   0.37224002
H   -1.37610219   4.41725362  -0.37008882
H    0.03269688   3.36830038  -0.10596457
H   -0.04594062   4.97778225   0.66492672
O    2.68120705   2.70436776  -0.86327327
H    3.06987640   1.82952046  -1.01160266
C    2.99841244   3.09712153   0.46249405
H    2.55311940   4.08435358   0.61273451
H    4.08308941   3.18237206   0.63274548
H    2.58038314   2.41527351   1.21953575
O    2.76134189   0.88419616   3.44613179
H    3.33797325   0.60960922   2.71776268
C    2.39921410  -0.28031688   4.17091218
H    1.74991326   0.04707724   4.98743328
H    3.26792700  -0.79469709   4.61083061
H    1.83939725  -1.00500260   3.55918262
O    0.36927690   2.44855339   3.40322420
H    1.20579778   1.96479978   3.47133095
C   -0.62374001   1.68748106   4.07196937
H   -1.55931532   2.24669752   3.98559225
H   -0.40537291   1.55072572   5.14266592
H   -0.77597079   0.69534835   3.61889564
O    1.72025240  -1.96446390  -2.07195286
H    1.72175800  -2.50040346  -1.26498955
C    0.39916968  -1.96857352  -2.58892223
H    0.41544797  -1.36045424  -3.49744365
H   -0.33078266  -1.52465642  -1.89402330
H    0.05169258  -2.97784468  -2.85986267
O   -3.69282893   2.00610539   1.78837923
H   -2.95469358   2.61355005   1.63156577
C   -4.62932721   2.67235828   2.62001126
H   -5.45404631   1.97409609   2.78660516
H   -5.04058152   3.58145742   2.15397911
H   -4.20894352   2.94440742   3.60084975
O    4.31494145  -0.02655127   1.24323396
H    4.08760682   0.01127148   0.30232393
C    4.71363610  -1.35602747   1.53660981
H    4.96613595  -1.38083941   2.60014796
H    5.60289891  -1.66875166   0.96723070
H    3.91162349  -2.08950524   1.35894872
O    0.51461242   2.24141218  -2.60756589
H    1.23161721   2.52756855  -2.02238050
C    1.10476741   1.70277288  -3.77979392
H    0.28323717   1.38544074  -4.42777045
H    1.73551091   0.82401677  -3.57308722
H    1.70790550   2.44165924  -4.33029253
O    0.11997526  -0.98822164   1.43464171
H   -0.82477896  -0.88740584   1.62358327
C    0.51891841   0.11343072   0.63480409
H    1.58538079  -0.01595128   0.43132560
H    0.38346373   1.08017249   1.14454883
H   -0.01047500   0.15219268  -0.33008837
O   -2.40818096  -3.94100713  -1.41616170
H   -2.65750026  -3.13949170  -1.89972781
C   -2.44533777  -5.02467820  -2.33093498
H   -2.16196057  -5.91930296  -1.76983863
H   -1.73371995  -4.90368148  -3.16264239
H   -3.44874525  -5.19028878  -2.75345586
O   -2.62006128  -0.59884027   1.90430391
H   -3.11506652   0.23304387   1.86740036
C   -3.21413253  -1.49463415   0.97847107
H   -2.64442398  -2.42627241   1.03294607
H   -3.16841220  -1.12666158  -0.05848755
H   -4.26413970  -1.72192465   1.22054812
O    3.53049403   0.08076998  -1.47920258
H    2.90806299  -0.60531714  -1.76255277
C    4.67366767  -0.00340891  -2.31502655
H    5.36429774   0.77615409  -1.98216495
H    4.43931035   0.17826361  -3.37561557
H    5.18902986  -0.97328079  -2.23423252
O    1.61892888  -3.14759259   0.48651649
H    1.14708971  -2.41365367   0.90737840
C    0.76327274  -4.27890332   0.50937213
H    1.31025913  -5.09620888   0.03156180
H   -0.16974020  -4.11783168  -0.05305130
H    0.50263906  -4.59436117   1.53178778
