90
Energy:   -541.80354321
O   -3.06624324   3.02568376   0.07785727
H   -2.11065430   3.14516804  -0.02700722
C   -3.31308924   1.63606997   0.22129484
H   -4.39391521   1.51942570   0.33831851
H   -2.82516937   1.20705923   1.11048622
H   -3.00057257   1.05539273  -0.66070550
O    2.43948335   3.10865802   0.14904760
H    2.96899196   2.31270252  -0.00747319
C    2.48895992   3.39225909   1.53816828
H    1.88751938   4.29146862   1.69683993
H    3.51065923   3.59772361   1.89410675
H    2.06292497   2.58377309   2.15267779
O    2.97772708  -1.08246724   1.98274606
H    2.21207531  -1.67098821   2.05919018
C    3.02002591  -0.27738341   3.15004406
H    3.88813893   0.37937624   3.04741979
H    3.14640161  -0.86896690   4.07028070
H    2.12531969   0.35462535   3.26337125
O   -3.44229037  -1.13327358  -2.31007703
H   -2.95754840  -0.45528783  -2.80382172
C   -4.82801967  -0.89067933  -2.49293243
H   -5.35912885  -1.66320753  -1.93025276
H   -5.13690848  -0.96325613  -3.54749283
H   -5.14262927   0.09098898  -2.10547215
O   -0.29797955   3.58908237  -0.38607687
H    0.63763941   3.41293910  -0.20715236
C   -0.38405597   4.85545008  -1.01966778
H   -1.44441338   5.03805617  -1.21404465
H    0.14977171   4.88643304  -1.98239589
H   -0.00707777   5.67407876  -0.38680773
O   -0.63984838  -1.22795643   4.11441348
H   -0.51379173  -0.27490559   3.99513612
C   -2.01771976  -1.50700370   3.92431651
H   -2.14198073  -2.58451159   4.06223372
H   -2.36804958  -1.24970732   2.91246429
H   -2.66059525  -0.99282576   4.65582828
O   -1.95034395   0.86182407  -3.57607262
H   -0.99680184   0.87505980  -3.74638270
C   -2.36345894   2.19775095  -3.33697190
H   -3.43969889   2.16454542  -3.14699780
H   -2.18955781   2.85777393  -4.20120878
H   -1.87487181   2.64273959  -2.45603771
O   -0.26733345   1.47197771   3.22556069
H   -0.33946718   1.01078804   2.37672379
C   -1.00526147   2.67928307   3.12353234
H   -0.91337352   3.18609965   4.08799009
H   -2.07551441   2.50830418   2.92833447
H   -0.61335997   3.35272815   2.34528928
O   -2.56373789  -1.97912508   0.20845137
H   -2.94162248  -1.75222202  -0.65418500
C   -2.04251197  -3.29538549   0.11726007
H   -1.62087024  -3.53490305   1.09722681
H   -1.23921682  -3.38377335  -0.63085878
H   -2.81634808  -4.04413188  -0.11368114
O   -0.54857305  -0.19981246   1.02279604
H   -1.18557772  -0.87704369   0.75075525
C    0.18431673   0.18879624  -0.12802523
H    0.89706766   0.95187458   0.19629369
H   -0.45406169   0.62841076  -0.91032275
H    0.75331415  -0.64357691  -0.57094082
O    0.79685101  -2.89199967   2.33509900
H    0.21952626  -2.31885014   2.86104485
C    1.17327190  -3.98945219   3.15145619
H    1.82316484  -4.62479121   2.54361681
H    0.31147519  -4.59361393   3.47560485
H    1.73711949  -3.68062974   4.04559371
O    3.71413142   0.61168798  -0.13047536
H    3.48823871   0.01145821   0.59555493
C    4.15657156  -0.17981949  -1.22148242
H    4.40683984   0.51196220  -2.03036379
H    3.38021039  -0.86876325  -1.58944598
H    5.05742454  -0.76676135  -0.98327979
O    1.49482465  -3.24463298  -0.40752539
H    1.21044895  -3.13572231   0.51208986
C    2.82297563  -3.74291271  -0.39121421
H    3.12753829  -3.85969590  -1.43480823
H    2.90251415  -4.72552608   0.09962377
H    3.53001610  -3.05306854   0.09559800
O    0.83914793   0.77600758  -3.80212321
H    1.11592769  -0.10799832  -3.51866281
C    1.72962018   1.71359882  -3.21858605
H    1.40346920   2.70380404  -3.54813781
H    2.77150526   1.57099777  -3.54556887
H    1.70527476   1.69500025  -2.11775058
O    1.16979099  -1.90810572  -2.87416505
H    1.30805316  -2.38557198  -2.04270078
C   -0.06279806  -2.34681706  -3.42260864
H   -0.20288513  -1.79912303  -4.35849968
H   -0.92107688  -2.12902284  -2.76785641
H   -0.06626472  -3.42361453  -3.65341705
