90
Energy:   -536.31997955
O   -3.00582101   1.63759443  -0.85437631
H   -2.39715973   2.38128440  -0.73239289
C   -3.28124285   1.09232976   0.42599982
H   -3.96806452   0.25598191   0.27016828
H   -3.76942204   1.81403727   1.09949568
H   -2.37976236   0.70512049   0.92617902
O    1.38864720   3.27557465   0.67741635
H    1.52751127   2.53857972   1.29058723
C    2.38799946   3.19462230  -0.32621484
H    2.21684169   4.03190005  -1.00823843
H    2.33056384   2.26213961  -0.90927102
H    3.40728234   3.28815795   0.08009885
O    1.44788490   0.97615526   2.31956379
H    1.04423623   0.29659966   1.75947879
C    2.04720183   0.32157746   3.42630716
H    2.49701160   1.10149593   4.04669700
H    2.84334785  -0.37779221   3.12662248
H    1.31727976  -0.22628246   4.04261926
O   -3.11614233  -0.59632085  -2.57739308
H   -3.12654092   0.17831019  -1.99579021
C   -3.26767478  -0.13565965  -3.91057084
H   -3.25381370  -1.02080810  -4.55229141
H   -2.44788782   0.52817954  -4.22686849
H   -4.22213165   0.38904542  -4.07327920
O   -1.12474514   3.69967768  -0.47313742
H   -0.24435856   3.60554901  -0.08009477
C   -1.30625356   5.06823948  -0.79967541
H   -2.30264643   5.15640253  -1.24116575
H   -0.57286189   5.43035971  -1.53709180
H   -1.26470227   5.72520124   0.08319042
O   -1.91141123  -1.14587330   3.42601343
H   -1.74007390  -0.19627480   3.34040100
C   -2.56171945  -1.35554303   4.66926384
H   -2.74726047  -2.43007855   4.74947070
H   -3.53045261  -0.83596706   4.73540163
H   -1.94446446  -1.05060004   5.52878894
O    0.36347675   1.29858370  -4.24842859
H    1.15123306   0.99515714  -3.77324906
C   -0.25153445   2.30685920  -3.46250523
H   -1.13692926   2.63739157  -4.01233209
H    0.39977297   3.18113319  -3.30687436
H   -0.57910093   1.93792539  -2.47794168
O   -1.14363843   1.57468348   3.34580265
H   -0.23694342   1.47186445   3.02060168
C   -1.50745475   2.93619459   3.18314060
H   -2.53121437   3.03431350   3.55431995
H   -1.49404179   3.25700827   2.12972900
H   -0.86723908   3.61959129   3.76268369
O   -1.25188553  -3.25355422  -0.00801113
H   -1.21483952  -3.21459828  -0.97524084
C   -2.58051181  -2.94821686   0.38448738
H   -2.60445407  -2.99657243   1.47653761
H   -3.31553678  -3.66969230  -0.00537006
H   -2.89180913  -1.93650390   0.08066473
O   -0.05460438  -0.73623277   0.72428159
H   -0.44011237  -1.62186755   0.65040405
C    0.12327919  -0.23320736  -0.59019803
H    0.55824482   0.76476254  -0.48848187
H   -0.82557393  -0.13753504  -1.14092654
H    0.81316882  -0.84672362  -1.19055413
O    0.45739724  -2.71081963   3.20921217
H   -0.36173829  -2.19367337   3.20918008
C    0.09972590  -4.08362877   3.20944982
H    1.03396581  -4.65167895   3.20948299
H   -0.47587516  -4.37325233   2.31637706
H   -0.47576759  -4.37297112   4.10268304
O    3.57505682  -0.44011681  -0.33320730
H    3.21605375  -1.12087340   0.25510429
C    4.57938906   0.26115315   0.38238403
H    4.97303081   1.02397440  -0.29484202
H    5.41496863  -0.38761650   0.68845927
H    4.18765028   0.76883679   1.27769145
O    2.60711192  -2.51495432   1.33415730
H    1.87527451  -2.55766213   1.96741342
C    2.35018170  -3.46729110   0.31456164
H    3.18400382  -3.40586988  -0.39003279
H    1.42051156  -3.25868365  -0.23768259
H    2.30258130  -4.49851395   0.69808604
O    2.64040300   0.35963708  -2.84739142
H    2.98914023   0.09613650  -1.98288401
C    3.38448889  -0.32892779  -3.83973631
H    2.97868984  -0.02059198  -4.80707357
H    3.28684497  -1.42307049  -3.76166754
H    4.45556598  -0.07348992  -3.82177261
O   -1.20573292  -2.66155224  -2.76518708
H   -1.89443632  -1.98048758  -2.78136793
C   -0.22422953  -2.30406626  -3.72507700
H    0.54379260  -3.08165197  -3.69364976
H    0.25745483  -1.33925579  -3.50169782
H   -0.62644952  -2.26271758  -4.74942397
