90
Energy:   -536.35609999
O   -3.51425573   1.20594531  -2.17442839
H   -3.06470690   0.85966051  -2.95955001
C   -3.07135027   2.53925396  -1.97781562
H   -3.58742702   2.91398689  -1.08971359
H   -3.32232686   3.19965316  -2.82260020
H   -1.98721962   2.60472713  -1.79574051
O    0.07237657   2.93296857  -0.02471583
H   -0.12986410   1.99240240   0.08867405
C    1.46668014   3.10068283   0.17609068
H    1.67715384   4.16554172   0.04470744
H    2.07184289   2.54049152  -0.55380046
H    1.78825571   2.81155909   1.18889567
O    1.73801785   0.12742028   2.09187548
H    0.84862286   0.10652461   1.70851770
C    1.76462416  -0.79639642   3.16816010
H    2.77334673  -0.76011099   3.58845445
H    1.56606456  -1.83056452   2.84590593
H    1.05227646  -0.53867698   3.96748406
O   -1.91230761   0.18659794  -4.23962002
H   -0.95945787   0.35390933  -4.18954463
C   -2.10473423  -1.21861005  -4.20968247
H   -3.18319329  -1.38930542  -4.26690432
H   -1.73513909  -1.67871733  -3.27990934
H   -1.63231759  -1.73077498  -5.06249367
O   -1.52892057   3.55143252   2.22929913
H   -0.99910734   3.52926256   1.41860208
C   -2.83138806   3.09215864   1.90498488
H   -3.41476755   3.12356511   2.82919655
H   -2.83645318   2.05558385   1.53314569
H   -3.33455371   3.73036876   1.16182306
O   -1.66159058  -0.82756646   3.61755973
H   -1.33522128   0.04176669   3.89354202
C   -3.07926786  -0.77538202   3.61886001
H   -3.43025649  -1.76241568   3.30571986
H   -3.47804836  -0.03112074   2.91187587
H   -3.49615253  -0.56542013   4.61630701
O    0.80188118   0.90996809  -3.82308740
H    1.61685339   0.69284643  -3.34653546
C    0.62851744   2.31659030  -3.76069555
H   -0.29376885   2.54377987  -4.30222866
H    1.45146439   2.86821922  -4.24157097
H    0.51857079   2.68615656  -2.72913854
O   -0.82174891   1.77659255   4.28919154
H   -1.09801737   2.42849737   3.62804170
C    0.40556515   2.22079363   4.84499670
H    0.70230243   1.47511130   5.58755313
H    0.31448080   3.19271837   5.35474494
H    1.20937029   2.29527589   4.09591257
O   -3.43454686  -0.26438179   0.21254911
H   -3.60012906   0.24961691  -0.59169659
C   -3.52804813  -1.63838869  -0.12788640
H   -3.33890979  -2.20285141   0.78922523
H   -2.77999108  -1.94285294  -0.87654486
H   -4.52610629  -1.91716923  -0.50063115
O   -0.63833801   0.24755072   0.49679893
H   -1.56869037   0.00081322   0.60629031
C   -0.19418441  -0.28623740  -0.74026678
H    0.85532245   0.00097217  -0.84765029
H   -0.74864455   0.11823005  -1.60152015
H   -0.25254415  -1.38541607  -0.77458492
O   -0.72679699  -2.86507320   1.90022008
H   -1.06349146  -2.14329278   2.45166648
C   -1.23875516  -4.08064034   2.42255056
H   -0.84977993  -4.88300404   1.78978206
H   -2.33870622  -4.12601003   2.39380017
H   -0.91001621  -4.27122383   3.45617814
O    3.87467160   0.43502664   0.33983512
H    3.18025859   0.32490174   1.00623318
C    4.97766521   1.06838082   0.96816731
H    5.75051122   1.18470262   0.20353440
H    5.39908958   0.47035129   1.79129519
H    4.72894645   2.06822979   1.35703536
O    1.11840632  -3.62060221  -0.09565835
H    0.51053164  -3.35886722   0.61173576
C    2.35539513  -2.96566991   0.13554750
H    3.02823264  -3.27154462  -0.67019164
H    2.81656412  -3.25367079   1.09323012
H    2.26711964  -1.86828537   0.10849302
O    3.12295623   0.30836116  -2.34958595
H    3.44299774   0.35745831  -1.43657655
C    4.16466907  -0.23884904  -3.14200574
H    3.78737527  -0.28710316  -4.16709409
H    4.44365645  -1.25826012  -2.83257977
H    5.07211388   0.38510662  -3.14124809
O    0.17516596  -3.42796781  -2.75617658
H    0.50494071  -3.60173234  -1.86204137
C    1.18784926  -2.72647406  -3.45967698
H    0.79990761  -2.53887608  -4.46456179
H    2.11874698  -3.30693372  -3.55597525
H    1.42988004  -1.75527512  -3.00036112
