90
Energy:   -535.70282931
O   -3.24941909   2.66611790  -0.41589114
H   -2.38252901   3.07459826  -0.27422726
C   -3.61981480   2.01382916   0.78821027
H   -4.59832319   1.55925868   0.61108825
H   -3.71505869   2.70936164   1.63670334
H   -2.91805635   1.21387405   1.07173143
O    1.82301333   3.18898610   1.11658289
H    2.09578929   2.27235249   1.27085334
C    2.92144896   3.87285872   0.53495483
H    2.59700917   4.90353687   0.36784237
H    3.22137076   3.44774587  -0.43566524
H    3.80472462   3.89533048   1.19229527
O    2.28689346   0.39460710   1.50757412
H    1.41095254   0.02959986   1.31284227
C    2.53481258   0.20378019   2.89128471
H    3.52525733   0.62050618   3.09338331
H    2.54662476  -0.85929344   3.17853416
H    1.80696092   0.72823968   3.52999555
O   -2.97928231  -1.32927704  -2.17280864
H   -2.48003597  -0.75061964  -2.76806654
C   -4.25777364  -0.74620922  -1.97780709
H   -4.80679916  -1.41067756  -1.30509764
H   -4.83181563  -0.65737088  -2.91341431
H   -4.20443272   0.24797154  -1.50713023
O   -0.65256326   3.80961226  -0.10257791
H    0.18501470   3.64936832   0.35699614
C   -0.34608182   4.21518001  -1.42700900
H   -1.30054909   4.39146689  -1.93039787
H    0.20060305   3.44409530  -1.99211197
H    0.23585711   5.14948128  -1.46173008
O   -1.19767965  -1.24139652   4.31209382
H   -1.19653107  -0.29590681   4.10121196
C   -2.49213127  -1.74514601   4.02371000
H   -2.47581051  -2.81101592   4.26689750
H   -2.76172645  -1.64155052   2.96099473
H   -3.27858868  -1.26872384   4.62974960
O   -1.39788834   0.46332847  -3.68969867
H   -0.47226790   0.71673743  -3.55766092
C   -2.16299079   1.65516516  -3.77141355
H   -3.20275923   1.35142702  -3.92010766
H   -1.86867262   2.29206723  -4.62024210
H   -2.11158942   2.25743823  -2.85086894
O   -1.09413743   1.33670928   3.20886351
H   -0.80776797   1.03632785   2.33354254
C   -0.82761748   2.72741143   3.29516773
H   -1.15615361   3.04928216   4.28710949
H   -1.38123165   3.31382987   2.54523300
H    0.24397270   2.96187736   3.19771239
O   -2.31654215  -2.21385376   0.40867198
H   -2.60733706  -1.97011932  -0.48265014
C   -1.74383038  -3.50967345   0.33528018
H   -1.42169936  -3.76856577   1.34755068
H   -0.86243294  -3.54833774  -0.32382599
H   -2.46239311  -4.27379848  -0.00021626
O   -0.41367407  -0.16753449   0.88924329
H   -0.98796664  -0.94658114   0.84804072
C   -0.32439356   0.37112070  -0.42011279
H    0.32596855   1.24767333  -0.35553857
H   -1.29991776   0.69802413  -0.81287737
H    0.12183619  -0.33275508  -1.13998446
O    0.65087865  -2.80552279   2.89315382
H    0.00935822  -2.26317595   3.37557970
C    0.84588055  -4.00081808   3.63192118
H    1.57107827  -4.59987701   3.07451482
H   -0.07742830  -4.59201311   3.73568315
H    1.25574745  -3.81717679   4.63743713
O    3.16892700   0.86449774  -1.16571392
H    2.94329708   0.60323453  -0.26058633
C    4.12282508  -0.06378191  -1.65653887
H    4.36583171   0.24527914  -2.67679092
H    3.73353570  -1.09321488  -1.69525396
H    5.05462050  -0.06649719  -1.06957443
O    1.73390550  -2.88392557   0.28931131
H    1.30810701  -2.79794883   1.15517904
C    3.12323627  -3.06808894   0.50926048
H    3.58742065  -3.16312857  -0.47612550
H    3.34570002  -3.98260456   1.08105450
H    3.58902184  -2.21383368   1.02507934
O    1.30292212   1.25917566  -3.28277885
H    1.95050017   1.14909289  -2.57077624
C    1.82030907   0.61862953  -4.43800402
H    1.07853937   0.75224765  -5.23009563
H    1.97332389  -0.46218504  -4.29238926
H    2.76893942   1.06083620  -4.78054021
O    1.64731944  -2.53704138  -2.52763366
H    1.62806825  -2.66310737  -1.56734202
C    0.33304705  -2.75221159  -3.01643181
H    0.37278274  -2.60625080  -4.09929917
H   -0.39673114  -2.03893949  -2.60237379
H   -0.03080779  -3.77342168  -2.82273889
