90
Energy:   -539.18209132
O   -3.66153166   0.93740186  -1.57921252
H   -3.13089015   1.74742306  -1.60583058
C   -4.16605554   0.79648242  -0.26083050
H   -4.76123874  -0.12062831  -0.24858005
H   -4.81970206   1.63164068   0.03587514
H   -3.36804239   0.69563196   0.49135400
O    1.51790824   3.58854043   0.86709537
H    1.63871308   2.80170058   1.41910308
C    2.19933539   3.36444194  -0.35682076
H    2.05299569   4.26022141  -0.96645101
H    1.79973632   2.50296900  -0.91446068
H    3.28217576   3.21778330  -0.21998034
O    1.66784738   1.16314943   2.30094379
H    1.02487398   0.52945887   1.94959670
C    2.29196937   0.56439923   3.42544533
H    3.01297314   1.29152029   3.80876469
H    2.83924548  -0.35595296   3.16811665
H    1.58021608   0.33121466   4.23279255
O   -2.59658950  -1.21326539  -3.02955661
H   -2.99722199  -0.47187218  -2.55179831
C   -3.60258841  -1.79489590  -3.84331697
H   -3.13434440  -2.62814280  -4.37428999
H   -4.00150498  -1.09351962  -4.59279293
H   -4.44544370  -2.19388454  -3.25750097
O   -1.87091318   3.08766018  -1.69328913
H   -1.10651870   2.79561410  -2.21178064
C   -1.55048840   4.34815209  -1.12670120
H   -2.42211339   4.66233855  -0.54614807
H   -1.35175822   5.11850552  -1.88817296
H   -0.68594816   4.30107306  -0.44616385
O   -1.02738605  -0.36923496   4.74343888
H   -1.45507619   0.24163237   4.12509793
C   -0.95219568   0.27694554   6.00412558
H   -0.46797311  -0.42492664   6.68851519
H   -1.94352342   0.52507085   6.41458932
H   -0.34794028   1.19716328   5.97493567
O    0.22959336   2.01761315  -3.21894266
H    1.11954462   1.63879070  -3.16505775
C   -0.47374869   1.32138218  -4.23536096
H   -1.47388865   1.76066360  -4.28265889
H   -0.58258090   0.24731460  -4.01784840
H   -0.00615693   1.42955461  -5.22653906
O   -1.99157500   1.32242787   2.70698255
H   -1.49820876   0.79399449   2.06217933
C   -1.60844663   2.67762728   2.53615807
H   -2.17342363   3.25872328   3.27006108
H   -1.85088989   3.06501589   1.53419567
H   -0.53572503   2.84298573   2.72244360
O   -1.18682584  -2.99287757   0.26163534
H   -0.87468256  -3.09687592  -0.64950362
C   -2.59669818  -2.84131054   0.21896011
H   -2.93165259  -2.72538026   1.25329609
H   -3.10602148  -3.71919925  -0.20844897
H   -2.91158299  -1.94868270  -0.34392570
O   -0.46637109  -0.33030465   1.04494010
H   -0.54824800  -1.28368119   0.89396784
C   -0.24561801   0.28728901  -0.21298674
H   -0.15572810   1.36055713  -0.02457084
H   -1.07997567   0.13261763  -0.91491366
H    0.68318419  -0.05334414  -0.69679751
O    0.59210809  -2.37448321   3.58618638
H    0.06307029  -1.68545563   4.01488590
C   -0.19391324  -3.55456596   3.54026316
H    0.41702117  -4.32025224   3.05449689
H   -1.11576371  -3.42882012   2.95106283
H   -0.46881413  -3.92162802   4.54149853
O    3.44334536  -0.60494497  -0.61118536
H    3.00368434  -1.17463240   0.03733425
C    4.38031299   0.19914509   0.08743085
H    4.86638435   0.83455022  -0.65787456
H    5.15956470  -0.39512328   0.58981437
H    3.90530169   0.85277628   0.83570076
O    2.22249889  -2.29497488   1.26085917
H    1.64753141  -2.34617711   2.03881418
C    2.28676078  -3.59081368   0.68709442
H    2.93822926  -3.51507813  -0.18774165
H    1.30391298  -3.95594257   0.35024365
H    2.71917217  -4.33776652   1.37109674
O    2.70567905   0.74909231  -2.92703740
H    2.99962390   0.27477085  -2.13517955
C    3.72200184   0.61979760  -3.90831444
H    3.37466233   1.15971094  -4.79337605
H    3.90387409  -0.42734488  -4.19674546
H    4.67845869   1.06395382  -3.59099302
O   -0.42997664  -2.90415551  -2.44722973
H   -1.14143294  -2.32790887  -2.76376254
C    0.79842285  -2.36373654  -2.90713818
H    1.58889836  -3.02488903  -2.54174652
H    0.99113997  -1.35252708  -2.51586735
H    0.86296596  -2.32928878  -4.00596705
