90
Energy:   -535.35798539
O   -2.93072262  -1.03725551  -0.98845350
H   -2.82604828  -1.31233617  -0.06552491
C   -3.46525754   0.27682437  -0.98794618
H   -3.57674069   0.57103270  -2.03508426
H   -2.80136522   1.00576513  -0.49736520
H   -4.45597320   0.33271685  -0.51031048
O   -0.85545104  -1.03472434  -2.89984295
H   -1.63601109  -1.03601434  -2.32612907
C   -0.56887674   0.31396171  -3.23369154
H    0.31282504   0.29706299  -3.88006730
H   -0.33364105   0.92966117  -2.35144686
H   -1.38856150   0.79846308  -3.78700217
O    2.39935280   2.08560084  -2.21584888
H    2.68628072   1.16427230  -2.13070561
C    2.86956665   2.78979176  -1.07762752
H    2.53762362   3.82552001  -1.18972574
H    3.96819091   2.78975405  -1.00145619
H    2.45587316   2.39886038  -0.13486155
O    0.41401296   1.22338827   1.47925252
H   -0.14191012   1.92100473   1.10149056
C    0.47884756   0.16626825   0.53541593
H    1.10870093  -0.61083689   0.97686529
H    0.93531938   0.47491354  -0.41807707
H   -0.50762253  -0.27425570   0.32189133
O   -3.50091892   0.64433192   2.50365912
H   -3.07791400  -0.19731405   2.27755700
C   -2.70949169   1.26949195   3.50133225
H   -3.20019751   2.21589041   3.74427865
H   -1.68819144   1.49340722   3.15552151
H   -2.64081359   0.67361509   4.42490759
O    1.48589138  -2.44013015  -3.46408466
H    0.62791197  -2.01336401  -3.32208019
C    1.53938283  -2.85896423  -4.81842969
H    2.51209604  -3.33745977  -4.96110497
H    1.46503876  -2.01887207  -5.52659312
H    0.75772138  -3.59362761  -5.06753295
O    0.49278309   3.42511975  -3.78808553
H    1.16826672   2.99506411  -3.24292749
C    1.07429628   3.70719290  -5.05094377
H    0.29999255   4.19128262  -5.65227236
H    1.40039339   2.79884952  -5.58136842
H    1.93148253   4.39495713  -4.98030773
O   -0.04150487  -3.25135936   1.02134728
H    0.87043060  -3.26966369   1.34763232
C    0.00413627  -3.37567571  -0.39109603
H   -1.03114379  -3.35321553  -0.74206032
H    0.45561231  -4.32473625  -0.72008057
H    0.54621279  -2.54734617  -0.87359011
O    2.57554702  -3.04101151   2.02731533
H    2.95793825  -2.24630880   2.42812430
C    3.25241325  -4.16425086   2.56835067
H    2.80934642  -5.05060736   2.10623688
H    3.12899359  -4.25021831   3.65929270
H    4.32965400  -4.16235904   2.33960166
O    3.06039616  -0.63436351  -1.99440733
H    2.61100552  -1.29176244  -2.54603944
C    3.69361586  -1.32614196  -0.92997830
H    4.19486172  -0.57085542  -0.31860279
H    4.45414821  -2.04134545  -1.28048058
H    2.97903190  -1.86531813  -0.28854540
O    0.79159466   0.09646138   4.03356774
H    0.58605526   0.49571851   3.17521433
C    0.12795122  -1.15583406   4.09575521
H    0.37018646  -1.59177102   5.06877435
H    0.46539012  -1.85516173   3.31482427
H   -0.96705839  -1.06066249   4.02739101
O   -2.37907534  -1.85853247   1.68653002
H   -1.56357591  -2.35088389   1.51053560
C   -3.38801313  -2.80018996   2.01494973
H   -4.29952126  -2.22875999   2.21015707
H   -3.14914404  -3.38132711   2.91938242
H   -3.59579296  -3.50445151   1.19420583
O   -4.11930734   2.94459198   1.00560241
H   -4.00340628   2.15704510   1.55765325
C   -5.44826850   3.40627184   1.18794196
H   -5.56167310   4.29351663   0.55911665
H   -5.65843857   3.69670724   2.22921673
H   -6.20200518   2.66708014   0.87448705
O    3.39891144  -0.64365934   3.22493298
H    2.59166741  -0.35901671   3.67853956
C    3.93061725   0.48238715   2.54534338
H    4.83925652   0.14410782   2.03994555
H    4.20483371   1.30115639   3.22886338
H    3.24418407   0.88181047   1.78242279
O   -1.35983770   3.12519936   0.42152921
H   -2.30997802   3.22163329   0.58387806
C   -1.07975177   3.69600945  -0.84664329
H   -0.00556022   3.57882642  -1.01357401
H   -1.31691866   4.77051151  -0.89107898
H   -1.61015883   3.18884519  -1.66775844
