90
Energy:   -537.06276493
O   -3.30596489   2.48997248  -1.08564217
H   -2.45812040   2.88227870  -0.82936339
C   -3.77304962   1.72035420   0.01073976
H   -4.72863296   1.28573193  -0.29495480
H   -3.94715997   2.32741389   0.91292680
H   -3.09136811   0.89608122   0.27277353
O    1.59525681   3.34858561   0.98467749
H    1.73679101   2.54854726   1.51224737
C    2.57321764   3.36517772  -0.04286866
H    2.39932165   4.27265486  -0.62744596
H    2.49206700   2.50138445  -0.72114080
H    3.60154383   3.40358576   0.34936519
O    1.66648345   0.85749239   2.33047233
H    0.99404773   0.38105349   1.82129706
C    1.64829751   0.34481028   3.65310610
H    2.41147347   0.89234582   4.21279573
H    1.89616076  -0.72729522   3.69704868
H    0.68045049   0.49857341   4.15550672
O   -2.28511109  -1.16106471  -2.71624679
H   -1.68023125  -0.54534208  -3.15605276
C   -3.60963518  -0.73724475  -2.99650802
H   -4.27788303  -1.44159819  -2.49369966
H   -3.84283644  -0.75428706  -4.07266045
H   -3.82396322   0.27161665  -2.61045167
O   -0.84325621   3.71827721  -0.38539707
H    0.00220704   3.62941712   0.07905857
C   -1.01955377   5.09037827  -0.69970846
H   -1.97639447   5.17251554  -1.22238861
H   -0.23264888   5.47872516  -1.36509910
H   -1.06388103   5.72952882   0.19600299
O   -1.75556635  -1.16705655   3.86934803
H   -1.80129956  -0.21675770   3.68696426
C   -3.00913472  -1.73289423   3.52160122
H   -2.94017970  -2.80337514   3.73326374
H   -3.24925969  -1.61081295   2.45379343
H   -3.84083173  -1.32062607   4.11413171
O   -0.44393000   0.68074109  -3.81626408
H    0.50625982   0.75882616  -3.64460947
C   -0.99829017   1.98577370  -3.77034630
H   -2.06880364   1.87941240  -3.96572640
H   -0.57613844   2.65432717  -4.53689800
H   -0.87683243   2.46500103  -2.78629014
O   -1.73802893   1.45859477   2.85261477
H   -1.30850238   1.12035643   2.05291167
C   -1.39535442   2.82947988   2.97824104
H   -1.88734977   3.19457189   3.88385333
H   -1.74897338   3.43569589   2.12957555
H   -0.31144189   2.98826491   3.09092766
O   -2.42407023  -2.07295279  -0.05337722
H   -2.43299365  -1.81862939  -0.98807678
C   -1.78574927  -3.33620681   0.04290051
H   -1.78431570  -3.60755647   1.10207590
H   -0.74109484  -3.31239072  -0.30481668
H   -2.31840563  -4.12511008  -0.51089202
O   -0.53888692  -0.14696065   0.83687809
H   -1.15795243  -0.87734189   0.68948608
C   -0.15402775   0.35404644  -0.43332232
H    0.54310830   1.17589712  -0.24880138
H   -1.00457990   0.75072404  -1.00950394
H    0.36169709  -0.39932145  -1.04914864
O    0.27723346  -2.77208427   2.76452466
H   -0.42256859  -2.20297030   3.11780876
C    0.39713683  -3.89239798   3.62653055
H    1.18948185  -4.52284709   3.21396725
H   -0.52537091  -4.49185576   3.67559359
H    0.68374977  -3.61118336   4.65198103
O    3.23392659  -0.22779064  -0.64188006
H    2.77667686  -0.96140679  -0.20466924
C    4.35561100   0.11662990   0.15544820
H    4.85912315   0.94428275  -0.35145561
H    5.07561399  -0.71051677   0.25645027
H    4.07227392   0.45580038   1.16414083
O    1.91295353  -2.49156148   0.47658688
H    1.30382812  -2.52392767   1.22914381
C    2.99354560  -3.36608064   0.75955471
H    3.66993148  -3.31745224  -0.09812974
H    2.67283014  -4.41240897   0.88250169
H    3.55810433  -3.06796491   1.65687170
O    2.27663587   0.75460557  -3.08067087
H    2.65185334   0.45823424  -2.23817508
C    2.98637107   0.10194190  -4.12126678
H    2.55099590   0.44708323  -5.06297328
H    2.88754865  -0.99413507  -4.08093388
H    4.05833811   0.35416774  -4.12805859
O    1.86675403  -3.26325600  -2.32677279
H    1.80588228  -2.96537592  -1.40699816
C    0.72221071  -2.78071645  -3.01212667
H    0.80685717  -3.12525333  -4.04634836
H    0.66485070  -1.68099637  -3.02227058
H   -0.21907850  -3.17395397  -2.59725777
