90
Energy:   -535.66149326
O   -2.73293402   2.51582356  -1.39676155
H   -1.92309752   2.88642992  -1.01565913
C   -3.41700025   1.82390791  -0.36436632
H   -4.32650648   1.41284782  -0.81081140
H   -3.71257376   2.48372404   0.46632996
H   -2.83093348   0.98758800   0.04778908
O    1.79670190   3.03151504   1.42070469
H    1.80043544   2.19362961   1.90687065
C    2.76361228   3.88026271   2.01840486
H    2.74621184   4.81935042   1.45867572
H    3.78345930   3.46846042   1.96265313
H    2.53741457   4.10666434   3.07213833
O    1.59566088   0.51726066   2.63469149
H    0.94877728   0.15042683   2.01388732
C    1.38884183  -0.10789356   3.89125102
H    2.12559526   0.31681819   4.57849153
H    1.54431768  -1.19751647   3.85482985
H    0.38610862   0.08645840   4.30299214
O   -1.97119123  -1.49145261  -2.80917868
H   -1.43948706  -0.83061750  -3.27716470
C   -3.33549791  -1.22576962  -3.09310401
H   -3.92018088  -1.97915349  -2.55827341
H   -3.57070662  -1.30923644  -4.16571181
H   -3.65704491  -0.23233785  -2.74313519
O   -0.25966562   3.60565629  -0.43210228
H    0.43352322   3.43435924   0.22255016
C    0.37556656   3.98748497  -1.64173888
H   -0.41955643   4.17663563  -2.36802165
H    1.02759268   3.19804735  -2.04723552
H    0.96926540   4.90915951  -1.53774339
O   -2.22808452  -0.99470804   3.92316199
H   -2.12556736  -0.07969350   3.62206087
C   -3.48659574  -1.46073162   3.46326493
H   -3.58577450  -2.49253883   3.81114805
H   -3.56406750  -1.46191308   2.36473224
H   -4.32952464  -0.88067637   3.87043087
O   -0.32275800   0.36261593  -4.09509847
H    0.56445466   0.64730946  -3.83009554
C   -1.08103568   1.52705320  -4.38081614
H   -2.07732055   1.18819343  -4.67759166
H   -0.65957505   2.11601410  -5.21043854
H   -1.19147776   2.18769431  -3.50666902
O   -1.78443412   1.48988699   2.68026992
H   -1.25563876   1.13209423   1.95172131
C   -1.42359884   2.85186799   2.84561634
H   -2.02846930   3.23926718   3.66995778
H   -1.63542858   3.45942071   1.95186851
H   -0.36254718   2.98153860   3.11044123
O   -2.39532961  -1.95787736  -0.03316336
H   -2.31537613  -1.86512403  -0.99411473
C   -1.96800318  -3.26637528   0.30999710
H   -2.06453439  -3.35379568   1.39559583
H   -0.91565113  -3.45331194   0.04469129
H   -2.58749096  -4.05090498  -0.15209095
O   -0.42127491  -0.11683656   0.77266356
H   -1.08808114  -0.79886206   0.60344788
C    0.15371813   0.24159382  -0.47370895
H    0.90243091   1.01052249  -0.26475185
H   -0.58224221   0.66359601  -1.17588690
H    0.66008308  -0.60284285  -0.96696201
O   -0.38617609  -3.08893762   3.48382452
H   -1.02634381  -2.37479471   3.62023740
C   -0.33299272  -3.85319799   4.67781422
H    0.39260111  -4.65304089   4.50678753
H   -1.29961095  -4.31716082   4.92914071
H    0.00577029  -3.26458761   5.54473681
O    3.56946306  -0.35227001  -1.22833934
H    3.28788553  -1.20386962  -0.86239469
C    4.04432866   0.44229753  -0.15330499
H    4.35733403   1.39768266  -0.58313298
H    4.91337164  -0.00470936   0.35436268
H    3.26786906   0.64527062   0.60081022
O    2.43413568  -2.74718509  -0.30138007
H    1.71495553  -2.97950318  -0.90737634
C    1.95866070  -2.93305521   1.02221716
H    2.78109769  -2.66694243   1.69174430
H    1.67396953  -3.97655529   1.22918541
H    1.10085526  -2.28498014   1.26085047
O    2.24643487   1.06447106  -3.23559454
H    2.73161909   0.62242237  -2.52312523
C    3.15195229   1.27428565  -4.30729870
H    2.58914609   1.77296616  -5.10105694
H    3.55496948   0.33350735  -4.71385825
H    3.99730036   1.92289071  -4.02895455
O    0.40451112  -3.03385064  -2.28622696
H   -0.45249287  -2.62812511  -2.48460597
C    1.26231666  -2.78896152  -3.38928305
H    2.22297247  -3.25262149  -3.14918923
H    1.43540574  -1.71538885  -3.56323484
H    0.89117692  -3.23706611  -4.32428835
