90
Energy:   -535.27275060
O   -2.56707014   1.98490087  -1.81250365
H   -1.97816439   2.53351633  -1.27339848
C   -3.75894358   1.77648708  -1.07187205
H   -4.41087366   1.15687956  -1.69361066
H   -4.29068404   2.71476754  -0.84902863
H   -3.58313939   1.24327215  -0.12447981
O    1.37806870   3.08139695   1.42254843
H    1.39661606   2.50132350   2.19817337
C    2.54417613   2.81679536   0.65919187
H    2.50725626   3.47853441  -0.21041928
H    2.58811483   1.77804066   0.29610042
H    3.47211711   3.03115672   1.21214040
O    1.00953242   1.25365053   3.55792358
H    0.04542255   1.34169038   3.59204705
C    1.31555347  -0.13158736   3.55886766
H    2.40524141  -0.21261515   3.52013919
H    0.90273622  -0.65887423   2.68460923
H    0.96733076  -0.64338769   4.46967977
O   -2.11836885  -0.51456634  -3.01591027
H   -2.25892262   0.36908402  -2.64465570
C   -1.94376757  -0.37028025  -4.41634938
H   -1.78667606  -1.37481180  -4.81849839
H   -1.06556814   0.24199354  -4.67454289
H   -2.82674721   0.06190747  -4.91267393
O   -0.78972670   3.56255888  -0.30196580
H   -0.03861301   3.39727148   0.28704318
C   -0.76790755   4.93717476  -0.65194993
H   -1.62039900   5.10599027  -1.31545943
H    0.14760460   5.22381357  -1.19273920
H   -0.87796510   5.59994410   0.22063328
O   -2.50490562  -1.29684700   3.76084251
H   -2.33192196  -0.34520144   3.70726390
C   -3.73392990  -1.54887436   3.09863763
H   -3.91345961  -2.62515573   3.16844245
H   -3.70610571  -1.27588403   2.03211083
H   -4.58417831  -1.02979520   3.56811796
O    1.40925862   1.48764755  -3.98217243
H    2.15874971   1.32436347  -3.39054358
C    0.57552952   2.45466551  -3.36386361
H   -0.26347271   2.62675752  -4.04352883
H    1.08709792   3.41647892  -3.20264928
H    0.16893617   2.11145110  -2.39967325
O   -1.79432473   1.38593270   3.08065967
H   -1.63546598   0.98383496   2.21376604
C   -2.09530276   2.75630823   2.87085761
H   -2.27144203   3.19386043   3.85726941
H   -3.00273625   2.90442462   2.26471957
H   -1.26711362   3.30581237   2.39659473
O   -3.11899032  -1.79366451  -0.65493347
H   -2.88931984  -1.53629381  -1.56015999
C   -2.50363802  -3.04497102  -0.39395962
H   -2.77259428  -3.31994075   0.62953409
H   -1.40514889  -3.00022374  -0.45796462
H   -2.85869438  -3.84185175  -1.06604103
O   -1.37943759  -0.08582872   0.78340879
H   -1.97856333  -0.70022948   0.33398324
C   -0.18114803  -0.02216898   0.02671642
H    0.48229004   0.67404768   0.54692551
H   -0.34253231   0.35822830  -0.99408246
H    0.33069604  -0.99484505  -0.04179824
O   -0.58825320  -3.06966563   2.68465566
H   -1.26541819  -2.45140944   2.99711388
C   -0.43113226  -4.07273177   3.67546599
H    0.33502262  -4.76053273   3.30746903
H   -1.35359714  -4.64931665   3.84688872
H   -0.09042660  -3.66709532   4.64094828
O    3.34979217  -0.87423027   0.03085580
H    2.80548923  -1.57431008   0.42078636
C    4.43328878  -0.62954251   0.91329377
H    5.03608921   0.16141872   0.45887417
H    5.07682386  -1.51244503   1.05157996
H    4.10394347  -0.28090707   1.90463747
O    1.78505317  -2.90600227   1.19022426
H    0.96694265  -2.96245761   1.70590948
C    1.71570934  -3.88368535   0.16462152
H    2.64486073  -3.80632145  -0.40649819
H    0.87507381  -3.71587126  -0.52671608
H    1.64181969  -4.90923267   0.55904561
O    3.48722812   0.87482848  -2.15464894
H    3.45971621   0.27188694  -1.39693668
C    4.54290191   0.45223488  -3.00288315
H    4.55974326   1.14207053  -3.85101542
H    4.39236159  -0.56613669  -3.39407911
H    5.52682538   0.49319152  -2.50993841
O    0.00882565  -2.42416667  -2.69462604
H   -0.69938369  -1.78018364  -2.84345035
C    1.23930246  -1.79029724  -3.00554423
H    2.02606576  -2.52957403  -2.83245884
H    1.44270770  -0.91870024  -2.36388831
H    1.29825896  -1.46888057  -4.05720615
