90
Energy:   -540.49809180
O    0.29160273   1.98157919  -3.57193643
H    0.34135101   2.38378473  -2.69206196
C    1.59629763   2.00136247  -4.12863528
H    1.52209112   1.54476100  -5.11933892
H    2.31978460   1.41844477  -3.53740698
H    1.99060108   3.02219955  -4.25189838
O    2.38162311   2.18766510   2.75921827
H    1.48346821   1.96002280   3.04191959
C    2.38795696   3.56314345   2.41201087
H    3.40689430   3.80269349   2.09599240
H    2.13094216   4.21698415   3.26007518
H    1.70832090   3.79402869   1.57680779
O    1.71562579  -2.56408462   1.44952977
H    1.77403766  -2.32546450   0.51247494
C    2.14311679  -1.44309451   2.20660731
H    2.07102390  -1.72908903   3.25945817
H    1.50864386  -0.55680776   2.04939015
H    3.18799943  -1.16357870   1.99956014
O   -0.25781420  -0.74090996  -3.05546464
H   -0.11182354   0.15917181  -3.38251635
C   -1.63412271  -0.86425770  -2.73438211
H   -1.78102157  -1.88378808  -2.36768914
H   -2.28923723  -0.71774988  -3.60738712
H   -1.95003380  -0.16766645  -1.94208284
O    0.17143003   2.79581508  -0.84255644
H   -0.78605306   2.71747321  -0.71800941
C    0.77083351   1.62019689  -0.32181553
H    1.84900847   1.72508758  -0.47021327
H    0.44155732   0.70802572  -0.84363761
H    0.58564193   1.49001857   0.75592981
O   -4.10242329  -2.60980186  -0.96837144
H   -3.45560607  -3.20210196  -0.55699407
C   -4.88717456  -3.38336824  -1.86184459
H   -5.61035248  -2.70082761  -2.31641823
H   -5.44652146  -4.18381095  -1.35272786
H   -4.29051541  -3.83584236  -2.66933599
O   -2.62680994   2.33711328  -0.78436761
H   -3.25898902   1.61254474  -0.66700787
C   -2.89746063   2.94584791  -2.03685478
H   -2.17652150   3.75963695  -2.15295556
H   -3.90970189   3.37626485  -2.09057839
H   -2.76919243   2.25282362  -2.88304739
O   -0.30928853   1.49364449   3.27720855
H   -0.72985687   0.64369697   3.07938348
C   -1.24106946   2.51744805   2.96713705
H   -0.75121722   3.46783772   3.19580594
H   -2.15999430   2.45313360   3.57064192
H   -1.52420331   2.52669203   1.90293449
O   -2.06938390  -4.15880840   0.21264038
H   -1.65312764  -4.10477063   1.08570047
C   -1.03908668  -4.34483376  -0.74465581
H   -1.52538785  -4.40361090  -1.72217390
H   -0.47557776  -5.27778414  -0.58705310
H   -0.32459444  -3.50715640  -0.76863113
O   -1.42494398  -0.96719622   2.47723544
H   -1.25686870  -1.90265409   2.66456549
C   -1.52123500  -0.82067810   1.06947329
H   -1.71061792   0.23867363   0.87610004
H   -2.35192582  -1.40039340   0.63743131
H   -0.59294362  -1.10223336   0.54814894
O   -0.55474029  -3.69654607   2.59183688
H    0.30228528  -3.39553008   2.25520677
C   -0.31594495  -4.43041124   3.78219501
H   -1.29155543  -4.76194473   4.14792024
H    0.15502467  -3.82163357   4.56982100
H    0.30681905  -5.32292933   3.61380917
O    4.16266410   1.17825288   0.82746534
H    3.57911935   1.49329282   1.53361592
C    5.43959429   0.94088628   1.39811422
H    6.08428387   0.58668176   0.58916446
H    5.41816390   0.16698164   2.18130620
H    5.89205361   1.85127674   1.82149005
O    1.64039989  -1.75823186  -1.24288828
H    1.00946676  -1.49106377  -1.92770058
C    2.90946853  -1.23326955  -1.59843452
H    3.60803078  -1.54353897  -0.81662325
H    2.91651342  -0.13303742  -1.64551916
H    3.27733910  -1.62457512  -2.55985458
O    4.30099042   2.21444715  -1.79990727
H    4.29434934   1.82426652  -0.91326290
C    3.91815560   3.57467979  -1.67445431
H    3.93090269   3.99884923  -2.68212637
H    4.61431654   4.15654665  -1.05030030
H    2.90234630   3.69464566  -1.26638937
O   -4.39215418   0.15655151  -0.53219285
H   -4.36863838  -0.79240765  -0.72544607
C   -5.02627425   0.32405339   0.72572950
H   -5.04432114   1.39843764   0.92786308
H   -4.48079377  -0.16849929   1.54586378
H   -6.06501981  -0.04168350   0.73036717
