90
Energy:   -536.07306885
O   -3.42262583   2.62341293  -0.40318999
H   -2.51434812   2.93393420  -0.27268555
C   -3.70092839   1.66924692   0.60905934
H   -4.72764797   1.32992837   0.44721060
H   -3.63768455   2.09425855   1.62303304
H   -3.03903970   0.79052928   0.55870064
O    1.75048510   3.02902628   1.02288179
H    1.97296010   2.14666221   1.35508925
C    2.80400449   3.44575452   0.16908542
H    2.53724641   4.44118849  -0.19620426
H    2.93147274   2.78503477  -0.70268209
H    3.77030127   3.52157597   0.69186547
O    2.12438691   0.29316387   1.76249687
H    1.28980608  -0.04069238   1.40133470
C    2.23304753  -0.17388106   3.09763569
H    3.17846219   0.21126250   3.48922317
H    2.25891912  -1.27290175   3.16291606
H    1.42076666   0.19358707   3.74412179
O   -3.14741150  -0.78083118  -2.42546765
H   -2.56394010  -0.19889994  -2.93472242
C   -4.46372349  -0.26034584  -2.52008022
H   -5.10779368  -0.92767653  -1.94100463
H   -4.83859375  -0.23754343  -3.55532400
H   -4.55212455   0.75218894  -2.09612752
O   -0.78908993   3.61448755  -0.03836240
H    0.09636440   3.44968884   0.31833816
C   -0.90941371   5.00990055  -0.26392511
H   -1.91238935   5.17787845  -0.66555740
H   -0.18015878   5.38640227  -0.99823501
H   -0.80843835   5.60030570   0.66019776
O   -1.06953482  -1.63045029   3.82675591
H   -1.12691532  -0.66863165   3.72657777
C   -2.38434157  -2.15313552   3.72371651
H   -2.30133807  -3.23727400   3.83877895
H   -2.84805779  -1.94810359   2.74611408
H   -3.05467804  -1.77649290   4.51211152
O   -1.33799928   0.90214215  -3.77971594
H   -0.37518078   0.83215792  -3.86037586
C   -1.64974889   2.25941678  -3.50925054
H   -2.73789367   2.32033985  -3.42141824
H   -1.33400590   2.93747224  -4.31753545
H   -1.21048496   2.61654274  -2.56464185
O   -1.18471153   1.07811120   3.06139244
H   -0.92032662   0.85607671   2.15628218
C   -0.95181678   2.46474157   3.24993954
H   -1.25495199   2.69777730   4.27428743
H   -1.54556049   3.09237530   2.56706207
H    0.10938575   2.73682280   3.13769722
O   -2.63252316  -1.95864542   0.07244228
H   -2.89067559  -1.58953157  -0.78519141
C   -2.15079499  -3.27390004  -0.15245113
H   -1.86446055  -3.67478003   0.82366004
H   -1.26342671  -3.29610303  -0.80426544
H   -2.91541079  -3.93888458  -0.58365360
O   -0.41336806  -0.28725116   0.68699008
H   -1.09772767  -0.96868099   0.61130268
C   -0.21874645   0.27235316  -0.60200147
H    0.55506070   1.03786702  -0.49857890
H   -1.12606868   0.75532268  -0.99732935
H    0.12990117  -0.46811527  -1.33883841
O    0.53481179  -3.17807029   2.10409338
H   -0.02232067  -2.64765854   2.69289731
C    0.78212122  -4.41819987   2.74709451
H    1.41086236  -5.00310715   2.07029819
H   -0.13965320  -4.99020437   2.93662050
H    1.32166743  -4.30288337   3.70017862
O    4.42740775   0.53139983   0.13745022
H    3.67467411   0.42804346   0.73839349
C    5.58697033   0.07930496   0.81830160
H    6.42521526   0.20272571   0.12721697
H    5.52853824  -0.98435397   1.09757333
H    5.80315510   0.66532898   1.72528414
O    1.49118105  -3.15953427  -0.54937845
H    1.11120212  -3.15098686   0.34166938
C    2.81552114  -2.65934282  -0.45736975
H    3.22860466  -2.67585059  -1.46958252
H    3.46058445  -3.27930906   0.18474591
H    2.85367268  -1.62187694  -0.08996486
O    1.44698885   0.40473726  -3.69403915
H    1.39164279  -0.56096262  -3.64127712
C    2.65742749   0.80126272  -3.06942758
H    2.70374163   1.89152242  -3.13779409
H    3.54841054   0.38973033  -3.56899502
H    2.69704593   0.52400829  -2.00437467
O    1.07958242  -2.33585429  -3.23002720
H    1.19966738  -2.71675707  -2.34746505
C   -0.23480634  -2.65202628  -3.66008676
H   -0.35315631  -2.21555905  -4.65556396
H   -1.01066870  -2.22486549  -3.00560331
H   -0.40656124  -3.73684652  -3.74035270
