7
Energy:    -40.19897873
C   -0.03832540  -0.07872135  -0.05989173
H   -0.81828800   0.49060293   0.40100781
H    0.90975341   0.24680984   0.31437437
H   -0.17340729  -1.11608511   0.16489351
C   -0.08587019   0.12638442  -1.58543134
N   -0.12126944   0.27909499  -2.72126493
Cl   0.32740691   0.05191428   3.48631231
