7
Energy:    -39.86051693
C   -0.05789911  -0.09759828   0.10492334
H    0.34490666  -1.04981739   0.38047091
H    0.60335167   0.38314854  -0.58538747
H   -1.01473271  -0.23438736  -0.35405083
C   -0.21222026   0.77784497   1.36245429
N   -0.32711937   1.42965225   2.29874325
Cl   0.66371313  -1.20884274  -3.20715349
