7
Energy:    -39.18611696
C   -0.17168207   0.09533940  -0.13120755
H   -0.07085094  -0.43539764   0.79240030
H   -1.17749054   0.44583472  -0.23319508
H    0.49900652   0.92901905  -0.13856539
C    0.16551916  -0.84512443  -1.30313891
N    0.41658081  -1.54534249  -2.17569508
Cl   0.33891706   1.35567140   3.18940172
