7
Energy:    -40.02773939
C    0.05459530  -0.12135285  -0.00701928
H   -0.37957867   0.85654515   0.00340427
H   -0.72218883  -0.85676988   0.01881295
H    0.63342558  -0.24511819  -0.89838717
C    0.96438842  -0.29221490   1.22370516
N    1.64177076  -0.41942947   2.14003544
Cl  -2.19241256   1.07834014  -2.48055137
