7
Energy:    -39.78907157
C    0.12421836  -0.07397668   0.06435371
H   -0.17579034   0.26193506   1.03495057
H   -0.40284094   0.48059285  -0.68368387
H    1.17678084   0.07646103  -0.05556222
C   -0.20032568  -1.57212454  -0.08337624
N   -0.44196347  -2.68756373  -0.19336790
Cl  -0.08007878   3.51467600  -0.08331406
