7
Energy:    -39.99200913
C   -0.13333942   0.03862614  -0.02204827
H   -0.54128007  -0.93534273  -0.19487548
H   -0.74398868   0.56084134   0.68456184
H    0.85992954  -0.05421912   0.36485693
C   -0.09689608   0.82244290  -1.34715324
N   -0.06976236   1.40603010  -2.33375412
Cl   0.72533708  -1.83837863   2.84841234
