7
Energy:    -39.86732761
C   -0.06815504  -0.13777872  -0.01102159
H    0.08795795   0.91077827   0.13408921
H    0.67856102  -0.68689596   0.52356654
H   -1.03775192  -0.40765306   0.35222602
C    0.02794089  -0.46818190  -1.51208765
N    0.09948868  -0.71418209  -2.62969956
Cl   0.21195842   1.50391347   3.14292704
