7
Energy:    -39.77404193
C   -0.01179200   0.01052296  -0.14458489
H    0.72566631  -0.21657050  -0.88585676
H    0.27356329  -0.42838100   0.78860038
H   -0.08835243   1.07172061  -0.03101931
C   -1.37369165  -0.55827095  -0.58424707
N   -2.38768785  -0.98176387  -0.91159555
Cl   2.86229433   1.10274274   1.76870320
