7
Energy:    -39.27667953
C   -0.07571177  -0.17932124   0.03249860
H    0.78964410   0.23895768   0.50271360
H   -0.16621109   0.21090029  -0.95968894
H    0.02126557  -1.24405078  -0.01046074
C   -1.33050309   0.18945775   0.84557966
N   -2.26475226   0.46403048   1.45095547
Cl   3.02626853   0.32002583  -1.86159766
