7
Energy:    -39.60150232
C    0.11491705   0.15985427  -0.01137838
H    0.85431255  -0.53148867   0.33537716
H   -0.85101882  -0.15088277   0.32819412
H    0.33098615   1.13520345   0.37190639
C    0.12998787   0.19832671  -1.55082397
N    0.14120877   0.22697118  -2.69701119
Cl  -0.72039357  -1.03798417   3.22373587
