7
Energy:    -40.36165929
C    0.02830073  -0.03191238  -0.05954316
H    0.62704632   0.85299779  -0.11731773
H    0.61637039  -0.83551712   0.33198281
H   -0.80794916   0.14466908   0.58419918
C   -0.47625222  -0.40307737  -1.46640593
N   -0.85191483  -0.67942658  -2.51387922
Cl   0.86439877   0.95226657   3.24096404
