7
Energy:    -39.17549327
C   -0.06372765   0.16033172   0.04872316
H   -0.72940680   0.94746803  -0.23796113
H   -0.54186659  -0.78458929  -0.10426875
H    0.82490455   0.21070874  -0.54515735
C    0.30354993   0.31491877   1.53627485
N    0.57700478   0.43001586   2.64382469
Cl  -0.37045822  -1.27885384  -3.34143547
