7
Energy:    -39.39803344
C    0.00040490   0.04307722  -0.06643082
H    0.73810788  -0.72835404   0.00832412
H   -0.97545649  -0.39576251  -0.07008222
H    0.09065252   0.70507779   0.76933811
C    0.21328624   0.83217817  -1.37165158
N    0.37178607   1.41969970  -2.34344776
Cl  -0.43878113  -1.87591631   3.07395016
