7
Energy:    -40.20486255
C   -0.08411368   0.03011934   0.04778518
H    0.77079363   0.57580870  -0.29317931
H   -0.97214948   0.46967549  -0.35604883
H   -0.01049335  -0.98699934  -0.27617273
C   -0.14239179   0.07599297   1.58599819
N   -0.18578249   0.11014797   2.73126770
Cl   0.62413715  -0.27474515  -3.43965019
