7
Energy:    -39.55605269
C    0.07614411   0.10335833  -0.12792265
H    1.07999885   0.07004319  -0.49679383
H   -0.60488553  -0.09650973  -0.92864137
H   -0.04718868  -0.63394828   0.63762754
C   -0.21097619   1.50014064   0.45359356
N   -0.42475031   2.54010857   0.88655880
Cl   0.13165775  -3.48319272  -0.42442205
