28
Energy:   -381.09582848
Na   0.12371581  -0.22000569  -0.20765590
O    0.19706252  -0.68786091  -2.58916437
H   -0.44533747  -1.06821890  -3.18823189
H    0.97425027  -0.54551916  -3.12948823
C   -2.19491000   3.41089697   2.45906251
H   -1.34973355   3.92751013   2.86364600
H   -2.79017584   3.02043929   3.25787442
H   -2.78173182   4.08917804   1.87556098
C   -1.71000886   2.25310763   1.56687715
N   -1.34897791   1.39108083   0.90260460
C    3.07254717   3.09402609  -2.64338578
H    4.09714962   3.32101401  -2.43465993
H    2.51377413   4.00348803  -2.71788915
H    3.00696028   2.55841278  -3.56735322
C    2.49649612   2.22926907  -1.50674139
N    2.06759993   1.58541816  -0.66045797
C   -4.12813800  -3.03253777  -0.74173521
H   -4.38986687  -3.44314222   0.21105132
H   -3.96662908  -3.82684792  -1.44022312
H   -4.92269358  -2.40666341  -1.09082231
C   -2.84032780  -2.19915121  -0.60531042
N   -1.88149457  -1.57865703  -0.50373597
C    2.97008294  -2.77710215   3.11776386
H    3.98999911  -2.49093530   2.96683430
H    2.87208319  -3.83374599   2.98065472
H    2.66995718  -2.51701648   4.11133272
C    2.07516761  -2.04251885   2.10232606
N    1.40886247  -1.49558819   1.34628646
