28
Energy:   -381.48202079
Na  -0.78316948   0.52385342   0.28671940
O   -2.86160502   1.59551271  -0.01601431
H   -2.91372427   2.43312394   0.44433649
H   -3.65736497   1.56359332  -0.54703136
C    0.22288820   0.38007884   5.18685363
H    0.03724545   1.22192804   5.82067290
H    1.27524310   0.28622844   5.01761897
H   -0.14330242  -0.50834484   5.65749881
C   -0.49748991   0.58218606   3.84081943
N   -1.03384415   0.73266408   2.83863579
C   -1.83034187  -3.33449231  -2.93209881
H   -1.30845736  -3.06174902  -3.82549001
H   -2.86785348  -3.47387613  -3.15355061
H   -1.42285646  -4.24492000  -2.54483126
C   -1.67469840  -2.21609295  -1.88493216
N   -1.55881476  -1.38339379  -1.10526899
C    3.98316503  -0.56898298   1.88524916
H    4.63836668  -0.64352301   1.04260169
H    3.92776653  -1.51668194   2.37890571
H    4.35938790   0.16614100   2.56565211
C    2.57841469  -0.15575130   1.40826274
N    1.53251421   0.15191848   1.05312467
C    0.55533381   1.65789925  -4.42056379
H    1.38166255   1.04691651  -4.71852535
H    0.74287814   2.67317988  -4.70151122
H   -0.33538133   1.31307949  -4.90287590
C    0.37807814   1.57229503  -2.89319601
N    0.24610323   1.50855880  -1.75600127
