28
Energy:   -380.27268797
Na  -0.54842520  -0.12091103  -1.26682954
O   -2.40654865   0.04592853  -2.70932422
H   -2.77172810  -0.67847966  -3.21736810
H   -3.14060063   0.64822507  -2.58833484
C    3.66319529  -2.14759710  -3.36842324
H    4.51977963  -1.55689281  -3.11896001
H    3.58155802  -2.22593733  -4.43242383
H    3.76859949  -3.12496054  -2.94587176
C    2.39614531  -1.47834439  -2.80425557
N    1.45276900  -0.98005533  -2.38420710
C   -2.08406491  -2.71506958   2.58696844
H   -2.77706107  -3.52877865   2.53662914
H   -2.53032503  -1.89869998   3.11544897
H   -1.19964441  -3.03100079   3.09969345
C   -1.71729123  -2.26419317   1.16085921
N   -1.44421155  -1.92849519   0.09905607
C    1.43043068   0.51509054   3.46112088
H    0.76740955   0.96191999   4.17220921
H    2.32864180   1.09320289   3.39865493
H    1.66814915  -0.48081043   3.77187849
C    0.74979481   0.47329338   2.08032842
N    0.24303047   0.44217349   1.05226568
C   -0.48890131   4.38049135   0.52231543
H   -1.35571334   5.00688064   0.55657245
H    0.35850094   4.96034541   0.22135399
H   -0.31053728   3.96501854   1.49209257
C   -0.71767700   3.24237089  -0.48958550
N   -0.88801091   2.39498848  -1.24299174
