28
Energy:   -398.57110633
Na   0.19548808  -0.51622289   0.57268240
O    0.76434051  -2.02331349   2.24573485
H    0.62037169  -2.96957330   2.25559390
H    1.19563779  -1.83748125   3.07980972
C    3.29600305   0.69835007  -3.25984714
H    3.53604861  -0.18659420  -3.81134686
H    4.19323590   1.12617631  -2.86382060
H    2.82004788   1.40434694  -3.90787043
C    2.34419024   0.34014996  -2.10341077
N    1.63552234   0.07345369  -1.24239134
C   -1.82406358  -4.05426355  -2.45734439
H   -2.14536266  -3.52118377  -3.32768515
H   -2.66579148  -4.53115363  -2.00021301
H   -1.10384786  -4.79417113  -2.73792447
C   -1.18674528  -3.07021918  -1.45880443
N   -0.71223284  -2.33755342  -0.71534604
C   -4.27113635   1.89025687   0.38461861
H   -4.11468037   2.94794985   0.42593789
H   -4.86400947   1.58445642   1.22121088
H   -4.77933059   1.64007492  -0.52315157
C   -2.91159965   1.16816741   0.42759277
N   -1.89936278   0.63053899   0.45958899
C    2.02334444   3.51771725   3.05535496
H    1.85275137   4.34573876   2.39947496
H    3.07198811   3.42419472   3.24640228
H    1.50592961   3.68075972   3.97763373
C    1.50429761   2.22592623   2.39697336
N    1.11784365   1.26412909   1.90677833
