28
Energy:   -382.72092048
Na  -0.33825272  -0.56110840   1.27236586
O   -1.00048769  -2.10496398   2.88630900
H   -0.43700718  -2.76636808   3.28788860
H   -1.80322989  -2.12521849   3.40729515
C    4.59119061   0.26642225   0.61503620
H    4.71464739   0.99303699  -0.16065036
H    5.01037806  -0.66629304   0.30003910
H    5.09069174   0.60117014   1.50010205
C    3.09127770   0.08126592   0.91097263
N    1.97452435  -0.05659138   1.13131076
C    1.30748445  -2.84621474  -3.17118677
H    0.73909561  -2.43523078  -3.97922545
H    1.14231205  -3.90213765  -3.11976731
H    2.34773700  -2.65542260  -3.33358160
C    0.86607743  -2.19258162  -1.84849119
N    0.53742984  -1.70592206  -0.86368421
C   -2.42031664   3.92183675   2.27925773
H   -1.94347722   4.57943299   2.97574285
H   -3.44177682   3.77999703   2.56456404
H   -2.37981374   4.34987945   1.29944241
C   -1.69476248   2.56346895   2.27641359
N   -1.15455442   1.55210239   2.27429599
C   -2.41293802   0.66419092  -3.09159200
H   -2.70721955  -0.26422615  -3.53469506
H   -1.55520762   1.04771687  -3.60355440
H   -3.21691319   1.36618888  -3.16723516
C   -2.06675935   0.43807409  -1.60813944
N   -1.80901360   0.26971984  -0.50364157
