28
Energy:   -380.95376420
Na   0.01994295   0.88652027  -0.35082856
O    0.33308553   2.24129819  -2.30444838
H   -0.09296287   2.02035415  -3.13263818
H    0.66432936   3.12988489  -2.43453702
C   -1.27968839  -3.52566675   1.91944621
H   -0.82471466  -3.50191336   2.88760677
H   -0.88610546  -4.34881228   1.36049808
H   -2.33823785  -3.64020914   2.02552244
C   -0.97745518  -2.21028188   1.17781441
N   -0.75242882  -1.23091805   0.62563582
C    4.96745366   1.10378838   0.85981845
H    5.19218623   0.08123337   1.08067292
H    5.14213279   1.70309160   1.72885352
H    5.59410901   1.44226081   0.06129570
C    3.49068152   1.22580751   0.44046733
N    2.39115753   1.31665630   0.12824137
C   -3.26190807   3.26818684   2.78615597
H   -2.63265783   3.75420471   3.50220831
H   -3.88513574   2.55544320   3.28463653
H   -3.87407674   3.99661567   2.29672767
C   -2.38950925   2.54610820   1.74254553
N   -1.73996868   2.00848783   0.96553013
C   -0.62843166  -3.33165304  -3.24453935
H   -0.77352379  -4.04212182  -2.45772134
H    0.19980702  -3.63464866  -3.85043822
H   -1.51137189  -3.28121109  -3.84684430
C   -0.34087760  -1.94561817  -2.63805769
N   -0.12678053  -0.91365221  -2.18650453
