28
Energy:   -383.19311125
Na  -0.40776281  -0.94159299  -0.75910538
O   -1.81682542  -2.62232526  -1.49256825
H   -1.81963382  -3.15189230  -2.28992809
H   -2.63791812  -2.84484587  -1.05379360
C   -2.81741032   2.29145706   1.95886072
H   -1.94335003   2.58175858   2.50351090
H   -3.60064961   2.04673556   2.64555331
H   -3.13204608   3.09972869   1.33228240
C   -2.49528381   1.06254678   1.08845046
N   -2.25544598   0.14756721   0.44039046
C    1.34642602  -2.38903775   3.91605364
H    1.81027329  -1.49199515   4.26969253
H    2.07100564  -3.17561655   3.88174255
H    0.55198447  -2.66454360   4.57776223
C    0.77938061  -2.15150016   2.50409210
N    0.35718953  -1.97464262   1.45282255
C    1.49625069   3.47158431   1.22080633
H    2.40552455   3.26096029   1.74402593
H    0.72843936   3.71690108   1.92449983
H    1.64936557   4.29726379   0.55770126
C    1.07227865   2.23328927   0.40934277
N    0.75661219   1.31132232  -0.19482872
C    1.93615363  -0.53836684  -5.28193496
H    1.33172081  -0.72105778  -6.14575506
H    2.71115770  -1.27405118  -5.22683193
H    2.37336895   0.43570827  -5.35207439
C    1.06139376  -0.61853310  -4.01703633
N    0.41009528  -0.67822052  -3.07526180
