28
Energy:   -380.30332997
Na  -0.02019885  -0.45184356  -0.89386173
O    0.37598430  -0.99124455  -3.19483907
H    0.93604283  -1.66734571  -3.57622277
H    0.02183958  -0.51957855  -3.94872536
C    0.25631968   4.11387677   0.76318478
H   -0.60072182   4.75439597   0.77391699
H    1.05808166   4.59949366   0.24718763
H    0.55567940   3.90177112   1.76831863
C   -0.09497395   2.79835384   0.04374595
N   -0.35652802   1.81888723  -0.49190896
C   -0.90959815  -1.19960809   4.30726556
H   -0.15380076  -1.83436343   4.72049207
H   -1.83925443  -1.72819371   4.27211560
H   -1.01751404  -0.32851213   4.91918474
C   -0.50405237  -0.77899300   2.88240923
N   -0.20210510  -0.46582594   1.82153893
C    4.86172272   0.91073462  -1.18619407
H    4.96104231   1.84994667  -0.68328601
H    5.19236714   1.01164774  -2.19880944
H    5.45757468   0.17468552  -0.68810646
C    3.38531190   0.47309159  -1.16947033
N    2.28605694   0.14724646  -1.15701876
C   -4.48261418  -2.82306685  -0.67825796
H   -4.54236665  -3.47339524  -1.52584442
H   -5.23863220  -2.06955995  -0.75284486
H   -4.63090080  -3.38968486   0.21720516
C   -3.09509015  -2.15605920  -0.63981511
N   -2.06201544  -1.65944168  -0.61119265
