28
Energy:   -389.27434225
Na   0.35416500  -0.32262977   0.15273565
O    0.26729643  -2.66112882  -0.01936342
H    0.53594249  -3.22116499  -0.74766325
H   -0.11889550  -3.26328691   0.61663443
C   -4.01637793   1.22348890  -1.91489566
H   -4.75662122   1.50660675  -1.19601853
H   -4.36467802   0.37880564  -2.47175860
H   -3.83596944   2.04055911  -2.58179005
C   -2.70934021   0.85575231  -1.18824428
N   -1.73619123   0.58195571  -0.64721931
C    2.00386506  -2.06794205  -4.25885428
H    1.43746042  -2.97549227  -4.23791249
H    3.04655707  -2.29647283  -4.18492097
H    1.81615481  -1.55146669  -5.17695948
C    1.58852897  -1.17617151  -3.07401621
N    1.27929238  -0.51220781  -2.19185041
C   -1.38647757  -0.73747071   4.96061744
H   -0.95447245  -1.58937693   5.44282853
H   -2.45338931  -0.81105949   4.99501411
H   -1.07402783   0.15370626   5.46368588
C   -0.92237990  -0.68807829   3.49304333
N   -0.57683809  -0.65130340   2.40036771
C    2.95985036   3.89693953   1.12767957
H    2.31846233   4.67759921   0.77541257
H    3.87202848   3.90516342   0.56842780
H    3.17546915   4.05289001   2.16406129
C    2.25978394   2.53708239   0.94796992
N    1.73855267   1.52460694   0.81416792
