28
Energy:   -378.47298857
Na  -0.58723435  -0.26032579  -0.81226912
O   -2.14964461  -0.22922257  -2.46266779
H   -2.01396634   0.33189505  -3.22619269
H   -2.83638871  -0.83916298  -2.73208770
C    1.09299270   4.28661649  -0.24964521
H    0.93731919   4.22425584   0.80713153
H    0.41115627   4.99644991  -0.66932926
H    2.09770224   4.59894850  -0.44434126
C    0.85234984   2.90521264  -0.88636683
N    0.67318030   1.87669469  -1.36043502
C    3.79809263  -2.46611712  -2.33959213
H    4.47363764  -1.66870672  -2.56910414
H    3.74954848  -3.14193889  -3.16772708
H    4.14460962  -2.98872474  -1.47258213
C    2.39695214  -1.88894852  -2.06521691
N    1.35373937  -1.45922027  -1.86093209
C   -1.26061158  -4.23750943   2.07208010
H   -0.54203060  -3.96239161   2.81562011
H   -0.99193029  -5.18284437   1.64893555
H   -2.22892238  -4.31019193   2.52151366
C   -1.28788754  -3.16828743   0.96409981
N   -1.30819574  -2.37220304   0.13915812
C   -1.46588083   2.90003086   3.36446905
H   -1.72086876   2.43745053   4.29500694
H   -2.22770999   3.60102672   3.09406150
H   -0.53075738   3.41040005   3.46430142
C   -1.34830288   1.82233870   2.27068889
N   -1.26076075   1.01994790   1.45631985
