28
Energy:   -379.74388505
Na   0.32687217   1.13618173   1.16198426
O    0.43709803   2.24592714   3.21762017
H    1.17795324   2.81610048   3.42321142
H   -0.10451215   2.26226274   4.00668506
C    0.31180222  -3.76985895   0.55023120
H    1.20778322  -4.34745557   0.45803374
H   -0.30298175  -3.92522586  -0.31162777
H   -0.22011253  -4.07425478   1.42733380
C    0.67264895  -2.27683427   0.66098740
N    0.94131574  -1.16520953   0.74345042
C    4.85063193   2.07574204  -0.83990539
H    5.60676629   2.56595951  -0.26297572
H    4.69312795   2.61318335  -1.75163365
H    5.16401710   1.07748773  -1.06390795
C    3.53800897   2.03342152  -0.03564801
N    2.56070151   2.00191197   0.56315817
C   -1.53808096   0.65517578  -3.54696432
H   -2.29577382   1.36993968  -3.79173825
H   -1.96202844  -0.32725005  -3.54429408
H   -0.75417342   0.70337993  -4.27364473
C   -0.96564202   0.97103147  -2.15263694
N   -0.53943521   1.20620038  -1.11449683
C   -4.32146602  -1.59684604   0.36447497
H   -4.63722418  -1.17587143  -0.56717805
H   -5.08456996  -1.44859849   1.09972604
H   -4.14433760  -2.64478144   0.24055566
C   -3.02364129  -0.90785557   0.82549896
N   -2.05735179  -0.39487084   1.16875227
