28
Energy:   -379.10818187
Na  -0.13064579   0.34953904  -0.83321232
O    1.09704353   1.14388025  -2.70075875
H    1.28500958   1.01835442  -3.63088986
H    1.80410631   1.70765287  -2.38698414
C    5.37801415   0.96416205   0.81629527
H    5.94858096   0.34591659   0.15514004
H    5.49995501   0.61883208   1.82166920
H    5.71962969   1.97548444   0.74264108
C    3.88964713   0.89544201   0.42688396
N    2.78149023   0.84427681   0.13694954
C   -4.64235239   2.58159197  -0.60199187
H   -4.76760467   3.09892987   0.32621799
H   -5.32503593   1.75888862  -0.64672980
H   -4.83771877   3.25168586  -1.41298216
C   -3.19834466   2.05665473  -0.70631144
N   -2.12321527   1.66581510  -0.78398210
C   -1.76933656  -4.37410889  -1.63422429
H   -2.48678842  -4.54275791  -0.85851784
H   -0.97948635  -5.09118984  -1.55157657
H   -2.24446108  -4.47512898  -2.58761336
C   -1.18971087  -2.95392388  -1.49744483
N   -0.75815320  -1.89653160  -1.39560631
C    0.03941554  -0.44470626   4.11161940
H   -0.49681111  -1.32596580   4.39577213
H   -0.33035089   0.39221373   4.66635972
H    1.08056802  -0.57825580   4.31914075
C   -0.15511333  -0.18867847   2.60556220
N   -0.29994892   0.00194585   1.48423415
