28
Energy:   -381.34548968
Na   0.09819407   0.66132770   0.67212560
O   -1.01811483   2.40827040   1.79356678
H   -1.96845824   2.49077581   1.87276342
H   -0.67397046   2.83472845   2.57837888
C   -0.42215805  -0.31804758  -4.22552120
H   -1.05878610  -1.11376570  -4.55176892
H    0.55624278  -0.45238168  -4.63732851
H   -0.82278905   0.61752181  -4.55582988
C   -0.33744606  -0.32598817  -2.68787338
N   -0.27437414  -0.33190031  -1.54302468
C    3.51848275   4.22632992  -1.07332038
H    4.12840647   4.60412111  -0.27948976
H    2.89388663   5.01047101  -1.44735451
H    4.14400021   3.86202355  -1.86129746
C    2.63932094   3.07834281  -0.54341462
N    1.98474501   2.22361423  -0.14887569
C   -3.76868334  -2.39301037   0.25162041
H   -4.21128128  -2.03747448  -0.65535339
H   -4.53581297  -2.57791685   0.97426889
H   -3.23603193  -3.30032795   0.05679643
C   -2.79419810  -1.33272826   0.79731295
N   -2.06864954  -0.54330003   1.20360585
C    1.42323947  -3.74466927   2.95337263
H    0.68786714  -4.43412272   2.59451102
H    1.25599448  -3.55379961   3.99284220
H    2.39915798  -4.16263255   2.81999782
C    1.31774035  -2.42552428   2.16576459
N    1.23919146  -1.44336087   1.57935460
