28
Energy:   -385.82284812
Na  -0.66403568   0.58497147  -0.27713678
O   -1.74640549   2.62957021  -0.10433744
H   -1.87535757   3.15455819   0.68559346
H   -2.18558952   3.12466699  -0.79587806
C   -2.91471660  -1.73885716  -4.23489604
H   -2.22115048  -1.67876722  -5.04745706
H   -3.88237981  -1.42659308  -4.56808992
H   -2.96682732  -2.74846822  -3.88436920
C   -2.44522040  -0.82168174  -3.09036008
N   -2.09565914  -0.13880296  -2.23820103
C   -0.68850218   0.04838100   4.77785462
H   -0.68686097   0.94586873   5.36044648
H    0.07716451  -0.60905674   5.13342352
H   -1.64044441  -0.43220839   4.86582576
C   -0.42276627   0.39457854   3.30098912
N   -0.22491380   0.65233835   2.20139563
C    1.57272810  -3.30017219   1.66821605
H    0.83299774  -3.93266159   2.11280164
H    2.03180418  -2.70075953   2.42640647
H    2.31687547  -3.90276447   1.19069503
C    0.90564333  -2.38528237   0.62438919
N    0.40896840  -1.70410531  -0.15278736
C    3.86839004   2.37502963  -1.77700005
H    3.86383886   2.68846985  -2.80005171
H    4.57719196   1.58366253  -1.64957543
H    4.13921058   3.20043064  -1.15228531
C    2.46501381   1.87492577  -1.38708817
N    1.42013642   1.50257570  -1.09678105
