28
Energy:   -381.45727760
Na   0.26634908  -0.55213482  -0.58749354
O    0.81851759  -2.37277988  -2.02815980
H    0.55671653  -3.29131104  -2.09134640
H    1.47465218  -2.26236464  -2.71629330
C    3.28413743   3.39108201  -1.58392522
H    3.17999317   3.91152159  -2.51300908
H    4.29567387   3.06083556  -1.47154020
H    3.03143682   4.04715876  -0.77732445
C    2.34186927   2.17308386  -1.56939154
N    1.64030780   1.26622887  -1.55857055
C    1.88908400   0.19462764   4.07514357
H    0.89425591   0.06483599   4.44712661
H    2.25888434   1.15356429   4.37277974
H    2.52157381  -0.57093352   4.47360541
C    1.87834418   0.10311428   2.53790255
N    1.87034789   0.03497842   1.39335673
C   -2.79874260  -2.17310440   3.20863254
H   -3.33455585  -3.01812182   2.82948889
H   -3.48744437  -1.38571466   3.43359111
H   -2.27425166  -2.45318804   4.09821755
C   -1.79122944  -1.68705168   2.15020446
N   -1.04109010  -1.32516334   1.36215665
C   -3.31076473   0.87685992  -3.65022678
H   -4.18524668   1.40992591  -3.34035237
H   -3.59583690   0.05695179  -4.27583337
H   -2.66670535   1.53456888  -4.19566746
C   -2.56883633   0.34308799  -2.41077942
N   -2.01643691  -0.05432947  -1.48795451
