28
Energy:   -382.31671004
Na   0.66033121  -0.70097480  -0.10623108
O    2.87554489  -1.61726799  -0.02410641
H    3.61037904  -1.43641127  -0.61023051
H    3.13261136  -2.41092312   0.44521248
C   -2.26828465   0.55578625  -4.06946234
H   -2.61954103   1.50868037  -3.73254700
H   -3.10039800  -0.04325585  -4.37546076
H   -1.60395153   0.69276171  -4.89698775
C   -1.52125862  -0.15063966  -2.92293953
N   -0.96506379  -0.67660587  -2.06930119
C   -3.38719874  -3.69433050   0.49848672
H   -4.12587245  -3.13513313  -0.03682593
H   -3.68665734  -3.79360742   1.52091899
H   -3.28786788  -4.66530733   0.06003894
C   -2.03602406  -2.95879001   0.42843556
N   -1.03001309  -2.41114669   0.37627928
C    1.21730206   1.00705667   4.67918211
H    1.66856186   0.23470438   5.26632493
H    0.24967400   1.23617450   5.07427710
H    1.83134776   1.88280903   4.70926178
C    1.07671931   0.52847864   3.22219907
N    0.97204906   0.17215555   2.13740898
C    1.78192050   4.06986314  -0.94285952
H    1.02477675   4.82303218  -1.00896489
H    2.41676670   4.12591779  -1.80235197
H    2.36400995   4.22592127  -0.05871201
C    1.12016269   2.68057642  -0.88320196
N    0.62745392   1.64618931  -0.83878419
