28
Energy:   -378.87072709
Na  -1.00981025   1.10864155   0.16639994
O   -2.22094910   2.96874700  -0.57295579
H   -2.37729839   3.81156820  -0.14699903
H   -2.60441050   3.06559363  -1.44462657
C   -2.54430036  -3.16197244   1.98991602
H   -1.64926271  -3.71420771   1.79282720
H   -3.33681987  -3.53634687   1.37619320
H   -2.81015137  -3.26967778   3.02075155
C   -2.30922268  -1.67332934   1.67324552
N   -2.13419667  -0.56496688   1.43746994
C    2.19591267   2.92633064   3.63840742
H    3.20611348   2.81422474   3.30400231
H    2.05995121   2.38402087   4.55071969
H    1.98835052   3.96266968   3.80519601
C    1.23639417   2.37664550   2.56660030
N    0.52198903   1.96737994   1.76859118
C    0.59824444  -3.82050259  -1.77526318
H   -0.24307127  -4.48101636  -1.80371683
H    1.33623080  -4.21152686  -1.10640202
H    1.01648736  -3.73318776  -2.75625659
C    0.14500353  -2.43273947  -1.28507321
N   -0.19245493  -1.39948675  -0.92010449
C    2.22306257   0.75277803  -3.49035165
H    2.48105141  -0.27082748  -3.31549827
H    3.11198629   1.34830398  -3.49826054
H    1.72733219   0.83936584  -4.43462546
C    1.28584533   1.24427173  -2.37157652
N    0.58804450   1.61021114  -1.53859758
