28
Energy:   -386.30040145
Na   0.04296655  -0.27633738  -0.82736454
O    0.44636814  -2.06686892   0.53700258
H    0.64105603  -2.99909029   0.44060869
H    0.43339609  -1.92097149   1.48292938
C   -4.52935905   1.77420318  -0.15593923
H   -4.52363252   2.39080193   0.71851681
H   -5.24598296   0.98903581  -0.03403161
H   -4.79045659   2.36624846  -1.00811853
C   -3.13041049   1.16471227  -0.36345730
N   -2.08882970   0.71091859  -0.51796393
C    0.20320761  -1.56783799  -5.71535333
H    1.17125821  -1.95458913  -5.95660377
H    0.00843821  -0.69871157  -6.30829788
H   -0.53874631  -2.31163479  -5.91825675
C    0.15811967  -1.19158575  -4.22270423
N    0.12454966  -0.91144885  -3.11135913
C    3.43884292   3.43706439  -0.33688858
H    3.22748190   4.00537373   0.54472992
H    3.40132367   4.07867480  -1.19235774
H    4.41459929   3.00521952  -0.25746171
C    2.39268286   2.31721619  -0.48883968
N    1.61376915   1.48343830  -0.60197419
C    0.45813176  -1.63173863   5.96665416
H    0.26532528  -0.65985005   6.37058290
H    1.42507794  -1.96378811   6.28233963
H   -0.28581820  -2.31704354   6.31564518
C    0.41468100  -1.56630176   4.42865869
N    0.38232994  -1.51758103   3.28355116
