28
Energy:   -381.38482963
Na  -1.11558393  -0.32851808   0.31572973
O   -2.57435286  -1.58483505  -0.94834261
H   -2.89727926  -1.36972307  -1.82337246
H   -2.97860273  -2.42805955  -0.74392556
C   -1.00147356   4.51819767  -0.77912244
H   -0.53397747   5.09754579  -0.01055017
H   -1.92249738   4.98181044  -1.06491506
H   -0.35230518   4.46150949  -1.62780728
C   -1.28305038   3.09869972  -0.25249158
N   -1.49269711   2.04181898   0.13960904
C    2.67303709  -3.45875098  -0.71238570
H    3.50161541  -3.23543408  -0.07325527
H    2.93477429  -3.23770072  -1.72605700
H    2.42544242  -4.49612361  -0.62604921
C    1.46014684  -2.60526487  -0.29758609
N    0.55709493  -1.96980566   0.01125107
C   -1.50941045  -0.63434521   5.29087695
H   -2.41924409  -1.06351287   5.65545623
H   -1.40638346   0.36018290   5.67192597
H   -0.68018225  -1.22802805   5.61463671
C   -1.54168076  -0.59358210   3.75175480
N   -1.56570747  -0.56323212   2.60580840
C    2.79803118   1.06657329  -3.22135559
H    2.91979356   2.11807298  -3.37763265
H    2.59055296   0.58874861  -4.15598678
H    3.69674618   0.66138329  -2.80538505
C    1.62791805   0.82408042  -2.24994813
N    0.75671563   0.64353345  -1.52669112
