36
Energy:   -477.96778358
O   -0.01375851  -1.66719574   3.00467962
H   -0.29831925  -1.93444933   2.13070448
H    0.91488122  -1.45927583   2.90158059
O   -0.96901513   0.89842839   3.18067305
H   -1.45486637   0.93372775   2.35669831
H   -0.73441298  -0.02407104   3.28161106
O    0.65153707   1.83943610  -0.15454843
H   -0.20491890   1.53320504   0.14367557
H    0.52925357   2.02484131  -1.08562495
O   -0.07237626   1.79979912  -2.83734530
H   -0.96496104   1.48613200  -2.69195893
H   -0.16395535   2.48669532  -3.49766243
O    1.82904893  -0.61078063  -0.23024542
H    2.25976190  -0.75298542   0.61266382
H    1.52195565   0.29505640  -0.19303184
O    2.53874302  -0.71439218   2.43909046
H    2.25107263   0.19383188   2.53186251
H    3.29345845  -0.78794114   3.02323685
O    0.99021105  -0.77618318  -2.88339488
H    0.77816814   0.15082294  -2.99261624
H    1.49937025  -0.81211605  -2.07364332
O   -1.37999300  -1.93229351  -2.39628907
H   -0.51686856  -1.60105960  -2.64434581
H   -1.47345889  -2.74922532  -2.88630784
O   -1.72357506   0.66311254   0.47135932
H   -1.39777011  -0.23677068   0.48848163
H   -2.15686264   0.74534799  -0.37818824
O   -2.47988126   0.58226624  -2.21462820
H   -2.20511565  -0.32862650  -2.31955730
H   -3.39726828   0.58918886  -2.48773073
O   -0.57062793  -1.79072424   0.26052877
H    0.31458262  -1.47339929   0.08181385
H   -0.91598840  -2.03483317  -0.59817305
O    1.52737848   1.77391696   2.51834197
H    1.35453096   2.05747909   1.62059585
H    0.66109999   1.59732804   2.88523403
