36
Energy:   -474.79732635
O    3.03810993   0.20492496   0.01644229
H    2.50287703  -0.54779437  -0.23489654
H    3.93542638  -0.06078677  -0.18468531
O   -0.59840663   1.67515580  -2.38700744
H   -0.65830886   2.19140601  -3.19082911
H    0.25012799   1.91174619  -2.01251333
O   -0.31899041  -1.05916158  -2.57140506
H   -1.09308809  -1.44618587  -2.16248353
H   -0.49171537  -0.11767739  -2.56906844
O    1.66792589   2.34932056  -1.09481595
H    2.22716908   1.63596038  -0.78725108
H    1.31030979   2.73565774  -0.29538731
O    1.25510080  -1.78936930  -0.53190634
H    0.95857008  -2.68173137  -0.35304514
H    0.77188617  -1.52851964  -1.31592988
O   -2.57068731  -0.30085635   1.01787410
H   -2.35518281   0.56030300   0.65983189
H   -3.40125349  -0.16960958   1.47522073
O   -2.20604200  -2.20691430  -0.95616840
H   -2.45471814  -1.54886133  -0.30704722
H   -1.71971521  -2.86374380  -0.45787822
O    0.44331997   3.07313537   1.27581311
H    0.83319767   2.32516776   1.72833015
H    0.58503366   3.81209130   1.86749986
O   -1.83081116   2.08313387   0.04193411
H   -1.50896316   1.98368195  -0.85403187
H   -1.10986450   2.50360128   0.51062903
O   -0.10328866  -1.20921486   1.78537237
H    0.34066525  -1.24525185   0.93811910
H   -0.96614709  -0.84440267   1.58885457
O    1.61245441   0.88383497   2.30958189
H    2.24499026   0.65587267   1.62828647
H    1.00395421   0.14519836   2.32895508
O   -0.50143268  -3.69369351   0.71071436
H   -0.60502996  -4.46225754   1.27179260
H   -0.42590580  -2.95978215   1.32055176
