36
Energy:   -474.94161739
O   -1.54385636  -2.22117638   0.15835352
H   -1.09154035  -1.84214286  -0.59528809
H   -2.02739683  -1.48912227   0.54112923
O   -0.26748872   3.19650795   0.66378341
H   -0.26436849   4.02240613   1.14763701
H   -0.32334369   2.52202149   1.34067342
O    2.17532444  -0.15615693  -0.17532269
H    2.56096765  -0.99594073  -0.42487096
H    1.98494645  -0.24747317   0.75829897
O   -0.57923091   1.19508730   2.43309312
H    0.09777269   0.52074914   2.48936055
H   -1.35285808   0.73221417   2.11140800
O    0.09797994  -1.07687642  -1.72320938
H    0.70894622  -0.62714955  -1.13951615
H   -0.26533227  -0.38184093  -2.27199145
O   -0.67878692   1.29800053  -2.89709402
H   -0.66836686   1.70582969  -3.76300316
H    0.07139733   1.68101042  -2.44238658
O   -2.30029407   1.94366418  -0.74056169
H   -1.87088239   1.70586988  -1.56232281
H   -1.66741404   2.50506473  -0.29276248
O    1.33357764   2.21960070  -1.36296948
H    0.87739441   2.64833827  -0.63887500
H    1.80217103   1.49192539  -0.95414102
O    1.42908479  -0.69417380   2.41437180
H    1.93050163  -0.85544468   3.21362439
H    1.15693921  -1.56410497   2.12215887
O   -2.73935040   0.05822556   1.14156296
H   -2.65573085   0.69424310   0.43112555
H   -3.66441604   0.09094219   1.38531494
O    2.12169002  -2.86439013  -1.10103985
H    1.37833871  -2.45008752  -1.53923390
H    2.39394104  -3.56153195  -1.69778478
O    0.76619214  -3.05717947   1.33507304
H    1.29500899  -3.16250196   0.54419267
H   -0.12040916  -2.89765603   1.01146486
