36
Energy:   -475.19861417
O    2.01744278   0.62582140  -0.83817257
H    2.44437243  -0.07153302  -1.33582681
H    1.56303546   0.17097998  -0.12904274
O   -0.96801049   3.17219042  -0.30087289
H   -1.16138644   4.08818920  -0.50033174
H   -0.06716312   3.18201378   0.02256083
O   -1.81008772   1.65097202   1.85282007
H   -2.09660859   0.81364308   1.48810390
H   -1.67377581   2.21140941   1.08890853
O    0.68491017   1.46400733   2.85135460
H   -0.23331292   1.56918091   2.60228289
H    0.70194557   1.65125375   3.78990690
O   -1.38408588  -1.16232219  -2.00478987
H   -1.00495087  -0.29455857  -2.14434202
H   -1.91460723  -1.32082112  -2.78559525
O   -1.55235088  -3.56671111   0.89891331
H   -0.80867571  -3.46862340   0.30430597
H   -1.40942437  -4.41207303   1.32455057
O   -2.05318835  -0.86325514   0.65800741
H   -2.09547379  -1.78461404   0.91401828
H   -2.00397781  -0.88175915  -0.29774767
O   -0.28045500   1.26903796  -2.17889637
H    0.60152064   1.10081472  -1.84715587
H   -0.61653344   1.97113692  -1.62181453
O    0.50773040  -2.73138474  -0.73218705
H   -0.12390330  -2.26312874  -1.27808725
H    0.70230647  -2.12569999  -0.01698220
O    0.62544770  -0.68099915   1.11345016
H    0.78439011  -0.07609380   1.83805949
H   -0.32674574  -0.69457300   1.01662428
O    2.72960388  -1.76098891  -2.02299452
H    3.33861141  -2.44498402  -2.30136901
H    1.99232237  -2.23709123  -1.64092853
O    1.53724424   2.93842048   0.65169203
H    1.93020295   2.26433549   0.09723308
H    1.39403385   2.50407130   1.49256267
