36
Energy:   -475.46216108
O    1.39202186  -1.05305044   0.88786173
H    1.55451913  -1.26581947  -0.03113546
H    2.21202057  -0.66475320   1.19291781
O   -3.42825631   0.26216725  -0.13643331
H   -3.14810717   0.47287211   0.75426966
H   -3.29155461  -0.68204269  -0.21397093
O    3.58480935   0.52060623   1.39409876
H    3.29536921   1.31623049   0.94751362
H    4.46360144   0.72939833   1.71089863
O    2.31866757   2.64359413   0.13060803
H    1.50877899   2.32405468   0.52836031
H    2.26281032   3.59628647   0.20469658
O   -1.07032801  -1.83592816   1.96960786
H   -1.55635524  -2.15854451   1.21070861
H   -0.17039695  -1.74377054   1.65677740
O    1.54733286   1.33308939  -2.20916123
H    0.59956258   1.46083956  -2.16862430
H    1.89197263   1.86392118  -1.49105756
O    1.84722038  -1.31967891  -1.82008386
H    1.82413466  -0.38356241  -2.01853989
H    2.56418810  -1.66073866  -2.35474952
O    0.10243051   1.34044255   1.00240896
H    0.52071552   0.47948441   1.00694669
H   -0.66948414   1.23516341   1.55855275
O   -2.55344436  -2.37735317  -0.30256153
H   -1.95218576  -2.12935417  -1.00485523
H   -3.02812782  -3.13305294  -0.64871946
O   -1.16669860   1.18349918  -1.39290674
H   -0.71544221   1.28068245  -0.55436340
H   -2.07946051   1.01849846  -1.15653350
O   -0.87877306  -1.43715226  -2.17425929
H    0.07086947  -1.55271631  -2.14176502
H   -1.01171637  -0.50062491  -2.02771768
O   -2.18019325   0.58146098   2.34148166
H   -2.57027345   0.64907969   3.21297291
H   -1.82527230  -0.30678492   2.30567398
