36
Energy:   -476.24353331
O    1.57393603  -1.07908102   2.64456260
H    1.36789481  -1.69216532   1.93893770
H    2.24877174  -0.50828000   2.27711899
O   -1.93047483   0.31966611   0.67108361
H   -1.68062128  -0.53499855   0.31986663
H   -1.55632249   0.33582780   1.55198127
O    1.02462661   2.45568746   1.68075454
H    0.43506800   1.95168779   2.24167952
H    0.60293153   2.44842806   0.82148018
O   -0.13567004   1.75448187  -0.72770836
H   -0.81786617   1.32305418  -0.21320819
H    0.56110815   1.10190337  -0.79751748
O    0.91071696  -2.53435973   0.37533737
H    1.20641116  -3.41375313   0.13982934
H    0.02338332  -2.47661594   0.02102605
O    3.14197210   0.83156528   1.35920496
H    2.46563257   1.49181313   1.51043145
H    3.96153365   1.27140621   1.58523742
O    1.78557895  -0.20315160  -0.81307910
H    1.54494298  -1.04475987  -0.42575275
H    2.42204813   0.16880848  -0.20251826
O    0.17887976  -1.10240404  -2.93345380
H    0.91459998  -0.73236646  -2.44558108
H   -0.36839308  -0.34789990  -3.15127894
O   -3.51785068  -0.27749957  -1.61698333
H   -2.95654303   0.20853320  -2.22108407
H   -3.38348306   0.14752975  -0.76991351
O   -1.49263676   1.11556380  -2.99134423
H   -1.02473351   1.48195462  -2.24097354
H   -1.58653896   1.85026588  -3.59766682
O   -1.42457442  -1.92000548  -0.91833068
H   -2.29982070  -1.64295065  -1.18928535
H   -0.87072059  -1.74309568  -1.67871262
O   -0.51870402   0.56193437   3.02217552
H    0.20274435  -0.06483333   2.96826498
H   -0.78710897   0.54048467   3.94072357
