36
Energy:   -478.53139242
O    2.96941225  -1.54553404  -1.11275243
H    2.68577007  -1.79925807  -0.23445688
H    3.80455680  -1.99699607  -1.23501229
O    1.49591859   0.78526603  -0.46825554
H    1.57182833   1.70557168  -0.72026162
H    2.25229622   0.36203863  -0.87446152
O   -1.64469674  -0.92598732   0.71479277
H   -1.42747975  -1.85761194   0.74832163
H   -1.40520775  -0.65547390  -0.17160408
O    0.59575177   0.06895295   1.97460052
H    1.01366346   0.36440087   1.16571722
H   -0.23310743  -0.31589555   1.68979196
O   -0.74698893  -0.08083087  -1.69630232
H   -1.25451773   0.71731569  -1.84330044
H    0.07807587   0.22534582  -1.31979767
O   -1.90599908   2.36970834  -1.48694762
H   -2.34313056   2.20424846  -0.65162077
H   -1.10326954   2.83410107  -1.24988956
O   -0.43683668  -3.41840766   0.39761118
H   -0.14131431  -3.19368523  -0.48465760
H   -0.68583091  -4.34083465   0.33962699
O    0.51067720  -2.54762250  -1.97093122
H    1.40448230  -2.23697770  -1.82655635
H    0.00187965  -1.75160147  -2.12490332
O    0.49432939   3.43974676  -0.53359537
H    0.21599069   3.21548730   0.35436133
H    0.64468662   4.38467604  -0.50651769
O    1.92273896  -2.25301181   1.28662554
H    1.57629904  -1.48157434   1.73506222
H    1.15133289  -2.78717628   1.09732988
O   -2.85996721   1.54212519   1.00948532
H   -2.58033177   0.62693944   0.98778468
H   -3.75894791   1.51068661   1.33671182
O   -0.45099344   2.62226888   1.86477657
H   -0.02132380   1.80775501   2.12589532
H   -1.35881004   2.37089716   1.69473796
