36
Energy:   -474.67764150
O    1.19539173  -0.45636770  -1.61351889
H    1.45458389  -1.35051643  -1.83611567
H    0.24833923  -0.50628333  -1.48378131
O    0.58789577  -2.33376057   2.12132031
H   -0.13768104  -2.05696333   2.68092144
H    1.01655303  -3.03422361   2.61308888
O   -1.21919825   3.04861396   0.44537245
H   -1.43565706   2.83490112  -0.46220909
H   -0.26588565   3.13461859   0.45086238
O   -1.53221690   2.09842084  -2.15087801
H   -0.59018283   2.18216628  -2.29849359
H   -1.93262065   2.55184465  -2.89271056
O    1.52459991  -3.14412386  -1.95467739
H    1.42218446  -3.85428303  -2.58825207
H    0.77131239  -3.23292281  -1.37080711
O   -0.60802884  -3.03543121  -0.29052153
H   -1.08807373  -2.24643122  -0.54205240
H   -0.24041497  -2.82896045   0.56881642
O    1.56087198   2.77587013   0.41495377
H    2.24648886   3.26076901   0.87433860
H    1.64861984   1.87717031   0.73255539
O    1.15101767   2.21605720  -2.28348806
H    1.33528347   1.27767152  -2.24213260
H    1.40998925   2.54956723  -1.42445568
O   -1.18340379   0.58192040   1.54842557
H   -0.24028618   0.45567407   1.44439248
H   -1.33217563   1.49440852   1.30050578
O   -1.46087806  -0.42399129  -0.95955455
H   -1.67738664   0.34272229  -1.49012610
H   -1.49144665  -0.10746636  -0.05672046
O   -1.50206062  -1.30127170   3.50652379
H   -2.41161735  -1.41982885   3.78017063
H   -1.52439121  -0.54464676   2.92064676
O    1.45448301   0.07125352   1.03582470
H    1.49140048  -0.16292324   0.10844657
H    1.37180641  -0.76632542   1.49173912
