36
Energy:   -477.39194765
O    0.16106867   1.04976067   3.13820384
H    1.04427673   0.70517438   3.00615964
H    0.01585965   1.63044966   2.39124568
O   -1.31682914  -1.18242723   2.83542317
H   -0.83940414  -0.38024206   3.04707422
H   -1.83491388  -1.36714094   3.61881381
O   -0.27872530   2.03590794   0.50810703
H   -0.35970237   2.41056822  -0.36899288
H   -0.84412373   1.26369791   0.49235471
O    0.92023213  -2.25966577   1.55946254
H    0.10040533  -2.07031794   2.01582124
H    0.69522841  -2.20814552   0.63051107
O   -1.75564135  -0.23230158   0.29348343
H   -1.79935804  -0.60637433   1.17347791
H   -1.11169834  -0.77206807  -0.16501562
O    2.50394647  -0.26809489   2.43592164
H    3.20927765  -0.63958642   2.96576485
H    2.01389000  -1.02801795   2.12192570
O   -0.35053193   2.25302787  -2.29658491
H    0.35074909   1.60492736  -2.36293638
H   -0.14362246   2.90037017  -2.97065335
O   -1.70838135  -1.92782670  -3.04286796
H   -2.05340051  -1.05008036  -2.87929842
H   -2.44439827  -2.40818939  -3.42202839
O    0.13529879  -1.64956064  -1.04983609
H    0.70740021  -1.00020962  -1.45882886
H   -0.44949996  -1.93119737  -1.75334374
O   -2.54271644   0.53337309  -2.26112344
H   -1.86924938   1.20547444  -2.36578348
H   -2.53109000   0.32542006  -1.32685784
O    1.65476854   0.36398880  -2.16494148
H    2.42234461   0.11357380  -2.67909239
H    2.01491347   0.70062629  -1.34445220
O    2.35918336   1.35138989   0.21649450
H    2.56170445   0.80525555   0.97606960
H    1.48195928   1.69156249   0.39254102
