36
Energy:   -484.47346018
O    1.04088400  -2.45104116   2.06320901
H    0.79590208  -1.78227957   2.70271948
H    1.83582800  -2.11077765   1.65270125
O   -0.49908196   0.17116129  -3.41138492
H   -1.19806236  -0.33826726  -3.00133516
H   -0.50085358  -0.11157137  -4.32587437
O    2.30431013   1.07414816   2.14389211
H    1.81466081   1.55044970   1.47336080
H    2.72464737   0.35662789   1.66985296
O    0.49536723   1.78878734   0.13794830
H   -0.18730792   1.34061522   0.63727608
H    0.02257663   2.24859992  -0.55579034
O    0.36947558  -0.18329245   3.53514365
H    0.43486475  -0.00177878   4.47269839
H    1.08693435   0.31491036   3.14363540
O   -1.35537807   0.27329563   1.40837948
H   -0.95023955   0.15015279   2.26682603
H   -1.19701642  -0.55075260   0.94783853
O    3.04731549  -1.13919964   0.62962432
H    3.87988410  -1.48153908   0.30425521
H    2.54507396  -0.93892817  -0.16023429
O   -3.08693038   1.07670046  -0.64463556
H   -2.68146080   0.89188124   0.20251739
H   -2.48682453   1.68970571  -1.06928765
O   -2.38513859  -1.15550762  -2.05529340
H   -2.82168718  -0.44299750  -1.58840314
H   -1.94367491  -1.65672367  -1.36963742
O   -0.60299992  -1.90629728  -0.03723824
H   -0.13042792  -2.31206775   0.68957528
H    0.07449449  -1.45818686  -0.54362764
O    1.25764541  -0.35873996  -1.32171106
H    1.05702268   0.44243758  -0.83787544
H    0.82103814  -0.24497952  -2.16590565
O   -1.09971280   2.47830736  -2.01862788
H   -1.31203661   3.20582340  -2.60332511
H   -0.88828300   1.75244029  -2.60569370
