36
Energy:   -484.07936254
O   -1.89921196  -2.82126448   0.37856352
H   -2.40634737  -3.63291105   0.39515751
H   -0.98680554  -3.10896997   0.34738793
O    1.07890569  -0.93976453  -1.18754682
H    0.13438667  -0.78451103  -1.19101469
H    1.43080124  -0.29219012  -1.79832400
O   -1.02380306   1.89325960  -2.45084904
H   -0.11381240   1.70149278  -2.67750811
H   -1.37449595   1.05885684  -2.13937130
O   -1.60890994  -1.28214996   2.68545338
H   -1.61977048  -0.38436937   2.35363429
H   -1.85776633  -1.81909087   1.93312578
O    1.85290205   2.74598032  -0.31949138
H    1.91669724   2.07323510   0.35842889
H    0.98317742   3.12696923  -0.19841968
O   -0.84985649   3.40768429  -0.22545165
H   -0.98098317   2.95374707  -1.05790505
H   -1.30879708   4.24095465  -0.33159251
O   -1.10801981   1.08152477   1.25784528
H   -0.17164420   0.89875514   1.33548432
H   -1.15068178   1.97440197   0.91552656
O    0.82372372  -3.26685375   0.25839915
H    1.03768580  -2.53264241  -0.31726201
H    1.47414962  -3.93610771   0.04561492
O    1.70389855   1.34593258  -2.61168463
H    2.33675713   1.67304404  -3.25099673
H    1.84306261   1.88974794  -1.83635884
O   -1.56572994  -0.41221012  -0.95601726
H   -1.88135784  -1.25821282  -0.63838492
H   -1.51162565   0.13365219  -0.17158185
O    1.52135551   0.40055942   1.15625159
H    1.47600191  -0.07591246   0.32730682
H    1.52605719  -0.28317274   1.82611729
O    1.07399894  -1.82614010   2.65125385
H    1.05353907  -2.44964629   1.92526950
H    0.15292641  -1.67199887   2.86124842
