36
Energy:   -489.69480933
O    0.47383196   0.07663014  -1.83123164
H   -0.32042573   0.15811649  -2.35919616
H    0.40860975   0.78334184  -1.18894160
O   -2.85158194  -1.47215132  -0.88114758
H   -2.03286900  -1.88315818  -0.60363302
H   -3.09812129  -0.90896275  -0.14747951
O    2.39621487  -2.34188825   0.78198033
H    2.72491771  -1.73418941   0.11949380
H    3.02692590  -3.06191244   0.78118695
O   -2.12179267   0.28929367  -2.78100149
H   -2.44842391  -0.38577887  -2.18617299
H   -2.61990135   0.15949771  -3.58801611
O   -3.14159471   0.40227784   1.15328560
H   -2.29327616   0.24925499   1.56942438
H   -3.75660345   0.47802394   1.88284618
O    2.07020931  -0.25983242   2.60626283
H    2.26164105  -1.05712650   2.11239251
H    2.48858998   0.43964490   2.10434557
O   -0.19610861  -1.93337774  -0.12201709
H    0.63039849  -2.29633011   0.19639060
H    0.06144402  -1.30901565  -0.80030203
O   -0.54446371  -0.12729505   1.86973462
H   -0.46895892  -0.83647697   1.23130539
H    0.28038014  -0.15219094   2.35475490
O    2.89308593   1.69152830   0.78159877
H    3.34211799   2.52864872   0.89920595
H    1.99130316   1.93087725   0.56774893
O    3.09150157  -0.44223806  -0.99043096
H    3.18549254   0.34157468  -0.44910376
H    2.30873023  -0.27822346  -1.51635879
O    0.22303782   1.87629481   0.19627326
H   -0.04523510   1.24059641   0.85971055
H   -0.59904454   2.22745937  -0.14591951
O   -2.28525571   2.22723153  -0.78469107
H   -2.73002502   1.70283163  -0.11879554
H   -2.30861897   1.68441024  -1.57274630
