36
Energy:   -476.13832093
O    2.94163000   0.99085124  -0.27238382
H    2.18779683   0.81155928  -0.83436406
H    2.63587308   0.78715741   0.61150157
O   -1.47269930  -1.01545187  -2.87043893
H   -2.11160968  -0.70424965  -2.22920688
H   -1.91645368  -0.92669096  -3.71390524
O   -1.07161096   1.20051866   0.46189043
H   -0.66011032   1.94079845   0.90785558
H   -0.86041522   0.44357963   1.00839889
O   -0.94873630  -3.21472232  -1.25510048
H   -0.06373880  -3.00844901  -0.95433048
H   -1.11983551  -2.57990719  -1.95077759
O    2.54439425   3.63669182   0.13161486
H    2.78934327   2.73295504  -0.06711026
H    3.23894852   4.16547928  -0.26108099
O    1.33503640  -1.97815465  -0.23934381
H    1.14055226  -1.19194059  -0.74951558
H    2.28176582  -1.94681070  -0.10167459
O   -0.34848385  -1.10795683   1.73525122
H   -1.16128408  -1.59889912   1.61457267
H    0.26978848  -1.51437976   1.12796910
O   -3.06705960  -0.21882296  -0.85268774
H   -3.07885856  -0.96516888  -0.25347125
H   -2.55333875   0.44740910  -0.39611619
O   -2.57371129  -2.43891622   0.74832721
H   -2.04057168  -2.81523955   0.04805957
H   -3.13785113  -3.15782003   1.03320507
O    0.48033369   3.06216495   1.79927544
H    0.32307906   3.80334133   2.38422022
H    1.16943206   3.36508350   1.20799241
O    1.79204512   0.64271592   2.18395493
H    1.08419657   0.00823290   2.29626507
H    1.36038760   1.49549297   2.23567468
O    0.56235531   0.29021519  -1.51579543
H   -0.03449839  -0.08206850  -2.16495055
H   -0.01082928   0.72378479  -0.88357026
