36
Energy:   -476.88411107
O   -0.51820664  -1.17122434   1.25587282
H   -0.07001805  -0.33322265   1.37038042
H    0.18622491  -1.81887502   1.23227984
O   -1.95612487   2.11609282   1.30178378
H   -2.43737427   1.29960689   1.43587925
H   -2.51858645   2.79128313   1.68123978
O    3.03393165   0.20365864  -1.23926169
H    3.20988137   0.00354851  -0.31989806
H    2.55100267  -0.55704629  -1.56227784
O    1.45277760   2.35408942  -0.98282535
H    1.91905902   3.12796765  -1.29893604
H    2.03658763   1.62295023  -1.18489754
O   -3.78229358  -1.03524520  -0.96583062
H   -4.21445473  -0.62614963  -1.71557018
H   -2.86555953  -1.11266142  -1.23009802
O    0.69415162   1.31065193   1.44741412
H    0.98725926   1.73220199   0.63956803
H   -0.17316070   1.68132729   1.61051214
O   -1.07604287  -0.97821113  -1.38951368
H   -0.93730375  -1.11352193  -0.45213740
H   -1.12348487  -0.02751720  -1.49032116
O    1.41849636  -1.94967270  -1.86524639
H    0.52233974  -1.61877728  -1.80488585
H    1.39989978  -2.55975818  -2.60259415
O   -3.13601085  -0.27405267   1.59459898
H   -2.33173442  -0.78712684   1.67286878
H   -3.52736565  -0.56542933   0.77108644
O   -1.21223359   1.71788953  -1.36219043
H   -0.30659866   2.02747044  -1.34746324
H   -1.55709445   1.94361152  -0.49827352
O    1.72717688  -2.62074232   0.81788512
H    1.70348972  -2.53427372  -0.13510698
H    2.29992163  -1.91123184   1.10907267
O    2.99437182  -0.24603252   1.50967173
H    3.56229865  -0.10331670   2.26685279
H    2.24136323   0.32452208   1.66354623
