36
Energy:   -475.60317076
O   -1.81703538   0.46244371  -2.53019001
H   -2.04268967   1.23733537  -2.01554944
H   -0.86603952   0.38938325  -2.44956193
O    0.18060131   2.04028211   0.13995680
H   -0.69071895   2.35167583  -0.10512852
H    0.40300369   1.39596415  -0.53207251
O    1.68019026  -3.52486444   0.91347538
H    0.94559412  -3.13086882   0.44297797
H    1.33930732  -4.35952247   1.23499775
O   -2.99805188   0.29191150   0.99642626
H   -3.08759688  -0.43234841   0.37702241
H   -2.20411928   0.08814559   1.49077667
O   -0.31420668  -0.09214353   1.76991600
H    0.55247728  -0.39966451   2.03547506
H   -0.14645414   0.73026412   1.30976756
O   -0.34881084  -2.00996579  -0.15894787
H   -0.37974636  -1.39790249   0.57634348
H   -1.24546049  -2.02873780  -0.49346074
O    2.24298907  -1.02727604   1.90232692
H    2.68757519  -0.61849456   1.15971482
H    2.18235939  -1.95282924   1.66587997
O   -2.89018986  -1.54411106  -1.09358830
H   -2.57164144  -0.86812960  -1.69175869
H   -3.55696935  -2.01340642  -1.59498516
O    3.27428739   0.26418966  -0.33796581
H    3.20850482   1.15568952   0.00428044
H    4.18419670   0.18343927  -0.62393132
O   -2.44117308   2.38066325  -0.60990855
H   -2.72820253   1.70063438  -0.00047712
H   -3.11757476   3.05550076  -0.55240243
O    2.78605136   2.72058819   0.68329510
H    1.84499431   2.66528660   0.51720715
H    2.85258183   3.00034140   1.59628124
O    0.80163926   0.02470090  -1.57480936
H    0.46594879  -0.77380572  -1.16746317
H    1.72903456   0.04304769  -1.33851886
