43
Energy:   -267.35138226
C   -2.44767193   1.57095586  -1.81832058
H   -1.75436692   1.76227854  -1.02609336
H   -2.22839652   2.21175194  -2.64669113
H   -2.36480843   0.54946385  -2.12587027
C   -3.88036960   1.84351225  -1.32365868
N   -4.94707814   2.04644288  -0.95536042
C    0.03100916   1.69207153   2.04238671
H   -0.40129971   1.66705820   1.06392693
H   -0.25699731   2.59636707   2.53655362
H   -0.31497121   0.85143950   2.60677530
C    1.56568064   1.63644406   1.92710857
N    2.70831331   1.59502688   1.84127875
C    1.75527059   1.67843530  -1.67042937
H    1.98783394   1.71299266  -2.71427814
H    1.20591155   0.78542948  -1.45678402
H    2.66215689   1.68374387  -1.10260181
C    0.90597970   2.90632120  -1.29280361
N    0.27364403   3.82053806  -1.01164406
C    0.19632749  -1.37635791  -3.67868781
H    0.85990658  -1.31689879  -2.84141390
H    0.61903970  -2.01723377  -4.42400090
H   -0.74524987  -1.77239866  -3.36012402
C   -0.01195276   0.03045271  -4.26953739
N   -0.16702688   1.07788716  -4.70945176
C    2.91333480  -1.67277438   0.01534257
H    2.41888390  -0.79526954   0.37645715
H    3.73807991  -1.90648795   0.65571166
H    2.22507270  -2.49199462   0.00682385
C    3.42854191  -1.42028736  -1.41378722
N    3.81213702  -1.23229931  -2.47783931
C   -3.40777758  -0.42281309   1.97104208
H   -2.91597186   0.24180077   1.29183981
H   -4.44891875  -0.18019746   2.01644927
H   -3.29090679  -1.43069607   1.63131833
C   -2.78535063  -0.27794706   3.37218395
N   -2.32192548  -0.17008772   4.41539776
C    0.56741863  -2.11290954   3.04585533
H   -0.13665582  -2.71591697   2.51147590
H    0.79366757  -1.23735160   2.47392106
H    0.14850874  -1.82540968   3.98753331
C    1.85804958  -2.91896483   3.28280811
N    2.81898299  -3.51910964   3.45923022
Cl  -0.66605515  -1.14700784  -0.21204244
