43
Energy:   -266.31442362
C   -1.44501435  -2.09899284  -0.95980916
H   -1.41905209  -1.07725817  -0.64313202
H   -0.61128835  -2.62331073  -0.54160968
H   -2.35508088  -2.55260559  -0.62677240
C   -1.37250719  -2.16203801  -2.49680884
N   -1.31852231  -2.20897801  -3.64117496
C    2.00956032   2.17435530   2.70195044
H    2.25773512   2.65084526   1.77660361
H    1.81912766   1.13581878   2.52852500
H    2.82538054   2.27791986   3.38650201
C    0.75228131   2.83422782   3.29811967
N   -0.18382005   3.32553291   3.74199476
C   -1.05108512   1.26674201  -3.26491555
H    0.00189050   1.45587057  -3.28422657
H   -1.29704469   0.54192595  -4.01260844
H   -1.32881265   0.89352378  -2.30134165
C   -1.81286628   2.57488915  -3.54782990
N   -2.38004698   3.54886415  -3.75847250
C   -1.59328264   3.25748891   0.05700043
H   -1.16371194   3.55268707   0.99146672
H   -2.02499309   4.11102976  -0.42257563
H   -0.83207371   2.84289339  -0.57035163
C   -2.68577675   2.20086923   0.30521698
N   -3.49918828   1.41416785   0.49002548
C    1.97538396  -2.32755962   1.35040450
H    2.01862122  -3.39623724   1.38136999
H    2.73975386  -1.95840098   0.69897558
H    1.01737527  -2.01975283   0.98657291
C    2.19185010  -1.76378590   2.76705604
N    2.35301898  -1.34403074   3.82181751
C   -1.23963827  -0.15025456   2.68282254
H   -0.77909142   0.20333517   1.78406168
H   -0.60687493   0.06808976   3.51758921
H   -2.18402190   0.33522949   2.81451876
C   -1.45398158  -1.67214887   2.58538205
N   -1.61356992  -2.80526836   2.51283317
C    2.27379172  -1.72245670  -2.82529891
H    2.66633314  -1.84453482  -3.81317965
H    2.97070391  -1.16998300  -2.23033227
H    1.34611431  -1.19140436  -2.87322730
C    2.04095452  -3.10622543  -2.19081414
N    1.86759664  -4.13650416  -1.71841139
Cl   1.12387230   0.66542477  -0.45791641
