43
Energy:   -267.26218841
C    0.50091065   2.52196224  -2.52608486
H    1.23779775   2.01118166  -3.11003759
H    0.77032213   2.47513146  -1.49161716
H    0.44755320   3.54507199  -2.83478943
C   -0.87061465   1.85199136  -2.73018621
N   -1.89177758   1.35316758  -2.88214893
C   -2.72574492  -0.42542871  -0.05038262
H   -3.18059571  -0.70819538  -0.97669463
H   -1.75638960  -0.01396512  -0.23997975
H   -3.33487503   0.30677453   0.43720123
C   -2.58955456  -1.66448357   0.85393769
N   -2.48815465  -2.58701623   1.52724528
C   -1.60055679   3.33638443   0.70055810
H   -1.70124760   2.40940839   0.17569910
H   -2.45350032   3.48470200   1.32935722
H   -0.71497831   3.31213577   1.30060964
C   -1.50260707   4.49197254  -0.31266545
N   -1.42967905   5.35236042  -1.06705644
C   -1.11525697   0.26866793   3.72085244
H   -0.94135969  -0.56581459   3.07409218
H   -1.14151647  -0.06671635   4.73659203
H   -0.32747837   0.98281907   3.60130280
C   -2.46155968   0.92455899   3.36185951
N   -3.46394325   1.41289969   3.09457296
C    0.03366787  -1.63708459  -2.29476479
H    0.06199430  -2.70657175  -2.31194059
H   -0.93741488  -1.30117348  -2.59319587
H    0.24205236  -1.29063706  -1.30408366
C    1.09061622  -1.07990792  -3.26636880
N    1.87756231  -0.66506457  -3.98977215
C    1.19067838  -2.78485521   1.75995705
H    1.16761331  -3.43027402   2.61307061
H    0.28348760  -2.21919188   1.71603699
H    2.02344540  -2.11775687   1.83981923
C    1.33098966  -3.63019140   0.48037920
N    1.43545779  -4.25958261  -0.47232468
C    3.71517250  -0.93841274  -0.73488256
H    2.70563058  -1.29271845  -0.74876598
H    4.09674551  -0.90936187  -1.73411085
H    3.74228872   0.04496412  -0.31400995
C    4.57995278  -1.88561818   0.11750054
N    5.22382100  -2.59085568   0.75213850
Cl   0.87104513   0.68472408   0.79308065
