43
Energy:   -270.05118387
C   -0.88305528  -1.28054885  -3.25010248
H   -1.72911116  -1.58536803  -3.82990838
H   -0.04961568  -1.10825228  -3.89863268
H   -1.11760128  -0.37907844  -2.72356819
C   -0.52732571  -2.38726085  -2.24003069
N   -0.26246887  -3.21125824  -1.48798633
C    2.55755724  -1.06940813  -0.94152999
H    2.53720662  -2.10014012  -0.65503810
H    1.64557482  -0.59752439  -0.64067637
H    3.38412879  -0.58347019  -0.46661645
C    2.70977497  -0.96447160  -2.47039169
N    2.82310799  -0.88634159  -3.60869872
C   -2.41661915   1.67309777   2.74832588
H   -2.64209944   2.37496053   3.52385633
H   -2.80060082   2.03468434   1.81735202
H   -1.35606861   1.55229315   2.67390891
C   -3.06585065   0.31639166   3.07915357
N   -3.54923301  -0.69373772   3.32546982
C    1.85689703   2.64374621  -2.42635538
H    1.15469635   3.23134183  -1.87268962
H    1.42944070   1.68690154  -2.64229164
H    2.09564103   3.14264763  -3.34232359
C    3.13914804   2.45714336  -1.59412241
N    4.09384220   2.31820905  -0.97448713
C    2.12465298   1.75086867   1.88137406
H    3.16064449   1.99116849   1.99917802
H    1.64259138   2.51923644   1.31381202
H    2.03133444   0.81659649   1.36822083
C    1.46171576   1.64379468   3.26724902
N    0.96812887   1.56407323   4.29909592
C   -0.15296674  -1.62658318   1.94624723
H   -0.35951051  -1.90083465   0.93282432
H   -0.35507397  -0.58465776   2.08205287
H   -0.77311759  -2.19889845   2.60409770
C    1.32774151  -1.90775416   2.26254768
N    2.43019610  -2.11709873   2.49804775
C   -3.45394452  -1.09750482  -0.25182774
H   -2.43701677  -1.40720778  -0.12999917
H   -4.03681121  -1.45544579   0.57099895
H   -3.50001731  -0.02896520  -0.28344221
C   -4.01235858  -1.67449593  -1.56592629
N   -4.42812323  -2.10409203  -2.54433239
Cl  -0.66543123   1.23324385  -0.35283525
