43
Energy:   -267.77360634
C    0.59185079   3.12518805  -1.58880344
H    0.78117626   2.60722121  -0.67187028
H   -0.10197945   3.92043850  -1.41252128
H    1.50819068   3.52847587  -1.96640010
C   -0.00088496   2.14567216  -2.61876119
N   -0.44220367   1.41637806  -3.38561154
C   -2.53265518   0.18041598  -0.77824217
H   -2.77359283   0.48191588  -1.77621363
H   -1.59730043   0.61333929  -0.49086091
H   -3.29967631   0.51267353  -0.11027315
C   -2.42815948  -1.35480964  -0.71689940
N   -2.35035768  -2.49785490  -0.67122693
C   -1.72303436  -1.54832838   2.95904232
H   -1.91557238  -2.40569192   3.56958066
H   -0.96115417  -0.95038478   3.41390617
H   -1.39659091  -1.86598495   1.99083363
C   -3.01229830  -0.71776813   2.81915611
N   -3.97221391  -0.09937826   2.71500447
C   -1.74052377   2.76836277   2.02875535
H   -1.85686608   1.71303569   1.89590429
H   -2.31091198   3.08615923   2.87643559
H   -0.70728384   2.99597702   2.18846158
C   -2.23923920   3.50226249   0.77007583
N   -2.61055551   4.04868419  -0.16706828
C    3.71721583   0.71131659  -0.89097601
H    4.39448705  -0.07770852  -1.14325217
H    2.71628899   0.40812410  -1.11707080
H    3.79656397   0.92911628   0.15361303
C    4.06883662   1.96982693  -1.70590823
N    4.33063428   2.90684509  -2.31266231
C    0.74788708  -1.64198696  -2.29100323
H    0.65730721  -0.95210989  -1.47812863
H    0.02607281  -2.42365633  -2.17752965
H    0.57645287  -1.12951722  -3.21452051
C    2.16386697  -2.24744906  -2.29507760
N    3.21812836  -2.69824311  -2.29811116
C    1.17270985  -3.24258653   1.07589670
H    0.36112820  -2.77922768   0.55480747
H    1.75190073  -3.82393484   0.38925914
H    1.79159990  -2.48828516   1.51510467
C    0.61643880  -4.15840163   2.18199128
N    0.20226972  -4.84026760   3.00552897
Cl   0.78204739   0.37214655   1.17563532
