43
Energy:   -266.23946553
C   -1.27153369   2.79730905  -0.47454653
H   -0.38062752   3.29590918  -0.15425871
H   -1.28606120   1.80342372  -0.07846573
H   -2.12720905   3.33432061  -0.12193151
C   -1.30133103   2.73725419  -2.01308659
N   -1.32351650   2.69254061  -3.15859960
C   -1.03283758  -0.89181235  -2.20716919
H   -1.99903138  -0.44858837  -2.32932571
H   -0.64368481  -1.16844480  -3.16473574
H   -0.37345610  -0.18780899  -1.74403376
C   -1.15134647  -2.14482042  -1.31974234
N   -1.23958173  -3.07774188  -0.65901271
C   -2.49843286  -0.51256978   1.60322604
H   -2.50389172  -1.58106665   1.65966030
H   -2.85970580  -0.10491218   2.52420174
H   -1.49997904  -0.16971668   1.42875307
C   -3.40764194  -0.05490657   0.44759494
N   -4.08458942   0.28584449  -0.41282494
C    0.04720720   1.90130090   3.58001754
H    0.25329710   2.10451692   4.61012937
H    0.79352239   2.36435669   2.96887756
H    0.05759040   0.84399122   3.41604336
C   -1.33849068   2.46410411   3.21301085
N   -2.37020575   2.88313668   2.93975769
C    2.05200525   1.40116097  -2.87655491
H    1.87635719   2.12264404  -2.10615883
H    2.22272075   0.44179323  -2.43454944
H    1.19816520   1.35081893  -3.51945610
C    3.28799805   1.81599273  -3.69621119
N    4.20825087   2.12485383  -4.30648255
C    2.60940928  -2.44317871  -1.08380535
H    1.73696290  -2.48275032  -0.46560507
H    3.14393094  -1.53700547  -0.88877780
H    3.23802431  -3.28164437  -0.86766288
C    2.19103176  -2.48367354  -2.56533173
N    1.87953069  -2.51382378  -3.66839547
C    0.71777273  -2.50809469   2.47648352
H    0.18319125  -2.29171745   1.57520459
H    0.90301917  -3.56017090   2.53746295
H    1.64921659  -1.98149750   2.47387073
C   -0.12003032  -2.06321840   3.68964927
N   -0.74381277  -1.73198778   4.59290632
Cl   1.30779330   0.45587946   0.57987454
