43
Energy:   -270.32896104
C    1.46381601   2.84175921   1.42742122
H    0.70427990   2.54746298   0.73359501
H    1.00990876   3.30981059   2.27582867
H    2.00978525   1.97843058   1.74598103
C    2.42448148   3.83423130   0.74645060
N    3.13974059   4.57317189   0.23943701
C   -1.37108108   0.30596993  -2.22389245
H   -0.90028929  -0.35295449  -1.52455427
H   -0.88092998   0.22918123  -3.17191907
H   -2.40061264   0.03515069  -2.33169229
C   -1.27236452   1.75462671  -1.71081487
N   -1.19886554   2.83321752  -1.32880530
C   -1.83252252  -2.97268001   0.39819579
H   -1.76395037  -3.75881469  -0.32443157
H   -2.02036265  -3.39190732   1.36456200
H   -0.91282131  -2.42622660   0.41911120
C   -2.98455005  -2.02434253   0.01729083
N   -3.84228691  -1.31826216  -0.26631022
C   -2.01835521   0.98132226   1.72999122
H   -2.71954801   0.22048625   2.00267676
H   -1.18822799   0.53600577   1.22256525
H   -2.49357649   1.68916441   1.08344400
C   -1.51996010   1.69851792   2.99838891
N   -1.14888229   2.23250269   3.94276865
C    2.49160796   1.76189640  -2.13575340
H    3.03908346   2.66687106  -2.29759168
H    3.12431843   1.04268566  -1.65898041
H    1.64650449   1.96315344  -1.51109764
C    2.00933881   1.20487453  -3.48806368
N    1.65026750   0.79014643  -4.49492015
C    1.29381902  -2.47439329  -2.75748730
H    1.89609199  -2.68119633  -3.61737099
H    1.77134359  -2.86792192  -1.88455856
H    1.17391125  -1.41636855  -2.65210771
C   -0.08770715  -3.13313036  -2.92793059
N   -1.11631618  -3.62359006  -3.05483336
C    0.73565698  -1.14193180   3.77415876
H    0.74619293  -0.16185421   3.34493027
H    1.34515671  -1.79555632   3.18578461
H    1.11943498  -1.09843354   4.77201719
C   -0.70908691  -1.67438609   3.80257573
N   -1.78476440  -2.07082251   3.82373346
Cl   1.37232149  -0.64586668   0.31220736
