43
Energy:   -267.24929280
C   -0.92835566   2.39083190  -1.77469573
H   -1.86786642   2.80294158  -1.47074618
H   -0.60648394   1.66761420  -1.05479724
H   -1.03757337   1.91978462  -2.72920348
C    0.11777656   3.51655285  -1.87449411
N    0.89666955   4.35470327  -1.94879853
C   -0.71984833  -1.48918858  -2.03540074
H   -1.55672922  -1.04360479  -2.53137015
H   -0.07671487  -1.94389244  -2.75964023
H   -0.17925494  -0.73590030  -1.50134582
C   -1.21904814  -2.56023640  -1.04785018
N   -1.59072508  -3.35768019  -0.31257389
C   -2.69178295   0.23239713   1.09248844
H   -2.11250947  -0.66303043   1.17939006
H   -3.44864732   0.24236382   1.84876621
H   -2.05418837   1.08294093   1.21474838
C   -3.35384557   0.28265172  -0.29702499
N   -3.84678129   0.32006855  -1.33158089
C    0.51942874   3.67014534   1.82310578
H    0.91156397   4.60125663   2.17547193
H    1.03292355   3.38213682   0.92964438
H    0.65779815   2.91857863   2.57203867
C   -0.98315268   3.82625259   1.52397441
N   -2.10189285   3.94248154   1.30125750
C    2.76523860   0.74109459  -2.05199619
H    2.66668101  -0.17076639  -1.50090987
H    2.49380039   1.56640990  -1.42743633
H    3.77929922   0.85561719  -2.37365553
C    1.83826509   0.70082863  -3.28110105
N    1.14809117   0.67084879  -4.19622549
C    2.21108004  -3.04747443   0.39374722
H    2.76159536  -2.24628435   0.84087978
H    2.53578967  -3.97864104   0.80894776
H    1.16724153  -2.91499628   0.58804033
C    2.45375793  -3.05107489  -1.12700735
N    2.63444265  -3.05375560  -2.25927826
C   -0.45027857  -2.30977436   3.16782797
H   -0.89697134  -1.35037187   3.32566527
H   -0.89979440  -2.77679569   2.31651975
H    0.59921526  -2.19075937   2.99666366
C   -0.67089510  -3.18972935   4.41225859
N   -0.83515414  -3.84489584   5.33879375
Cl   0.93783560   0.23035137   1.03690240
