43
Energy:   -266.37713643
C    2.84411938  -0.75318549   0.01225374
H    3.18417030  -0.85394088  -0.99725798
H    3.40311857   0.01676154   0.50174386
H    1.80541179  -0.49632113   0.01477001
C    3.04512213  -2.08601626   0.75707589
N    3.19477781  -3.07836936   1.31162984
C    1.12906680  -1.20132712   3.81274848
H    0.27226241  -0.56645719   3.90064959
H    1.20423862  -1.82129484   4.68159157
H    1.02932703  -1.81664390   2.94307249
C    2.39758635  -0.33717741   3.68743512
N    3.34205681   0.30622133   3.59413363
C   -1.71679010   2.95109767  -0.47169193
H   -2.37175091   2.44552245   0.20677710
H   -0.86053856   2.33887126  -0.66381482
H   -2.23224449   3.14165008  -1.38978541
C   -1.26462848   4.28564579   0.14970263
N   -0.92797360   5.27927752   0.61235913
C   -0.33679477   0.05592289  -2.78033349
H    0.62344847  -0.06382062  -3.23694557
H   -0.23462059   0.00540922  -1.71642189
H   -0.74622580   1.00567457  -3.05462726
C   -1.27660871  -1.06596848  -3.25961369
N   -1.97634291  -1.90126759  -3.61645959
C   -0.20789915  -3.42695025  -0.51533270
H    0.21170229  -3.19069798   0.44018793
H   -0.51376044  -4.45223743  -0.52691578
H   -1.05547969  -2.79982235  -0.69758780
C    0.84828430  -3.19392478  -1.61158798
N    1.63466089  -3.02042672  -2.42779987
C    1.64584209   2.65708629   1.56154433
H    2.54249928   2.57044607   2.13895194
H    1.01922753   1.80971609   1.74652278
H    1.12778519   3.55117558   1.83925007
C    2.00279789   2.71454299   0.06458699
N    2.26856771   2.75732212  -1.04996579
C   -4.00364356  -0.64521740  -0.82445048
H   -3.16113930  -1.27675106  -1.01485004
H   -4.90424329  -1.21665600  -0.90975670
H   -3.93013913  -0.24068553   0.16340080
C   -4.02582099   0.50394194  -1.84940950
N   -4.04233310   1.35954330  -2.61253807
Cl  -0.98709607  -0.25066894   1.08675841
