43
Energy:   -268.12102048
C   -1.68256574   2.45324807  -0.98300707
H   -1.17985641   3.31320233  -1.37372716
H   -2.24409610   1.98324665  -1.76318744
H   -0.96150228   1.76325677  -0.59715922
C   -2.63570150   2.88507996   0.14688383
N   -3.34535439   3.20659843   0.98813897
C   -0.48682159  -1.05833523  -2.28940642
H   -1.37901445  -0.64900819  -2.71525082
H    0.25023584  -1.18095783  -3.05531054
H   -0.11324823  -0.39458029  -1.53789367
C   -0.80120949  -2.42628868  -1.65579485
N   -1.03528557  -3.44479220  -1.18404224
C   -2.86944409  -0.79262098   1.11423468
H   -2.06418958  -1.49216597   1.02996030
H   -3.61657770  -1.18626585   1.77129950
H   -2.49963120   0.13125462   1.50741579
C   -3.48534996  -0.54893459  -0.27604476
N   -3.94391987  -0.36749900  -1.31117099
C    0.19461294   3.36795416   2.52458201
H   -0.01203029   4.00949155   3.35562264
H    1.04314357   2.75590351   2.74883380
H   -0.65444847   2.74496689   2.33516010
C    0.49278919   4.22215280   1.27837351
N    0.71479496   4.85814251   0.35051464
C    2.26608347   1.86837968  -1.46439799
H    3.22854771   2.28524354  -1.67602805
H    2.37315804   0.83437407  -1.21088954
H    1.82289134   2.39277165  -0.64373187
C    1.36461087   2.00187025  -2.70581952
N    0.69342354   2.10126005  -3.63011428
C    2.74459328  -2.42209306  -0.25425257
H    3.07798061  -1.67879798   0.43948044
H    3.27195650  -3.33632171  -0.07826079
H    1.69501388  -2.58524498  -0.12516492
C    3.01636615  -1.94125883  -1.69179838
N    3.21871341  -1.58325590  -2.76211658
C    0.10444941  -3.33256085   2.38126488
H   -0.16134583  -3.02674369   1.39094728
H    0.45244905  -2.48556210   2.93478856
H   -0.75255724  -3.74911458   2.86801089
C    1.21958744  -4.39222988   2.30937106
N    2.04985839  -5.18120164   2.25584284
Cl   0.62889041   0.07743651   1.25384392
