43
Energy:   -268.95764317
C   -0.70891650   3.22467289  -0.91731208
H   -1.03524127   3.88769098  -1.69114626
H   -0.87822361   2.21244516  -1.22001525
H    0.33531431   3.37318691  -0.73724348
C   -1.49849025   3.51352508   0.37293506
N   -2.08636380   3.72858867   1.33358271
C   -0.94465159  -0.88827854  -2.45543132
H   -1.79205359  -0.48132369  -2.96650644
H   -0.24356148  -1.26458642  -3.17080823
H   -0.48020764  -0.12294840  -1.86937613
C   -1.40252477  -2.03389262  -1.53373693
N   -1.74343216  -2.88685438  -0.84749357
C   -2.74889630   0.12525445   1.12756488
H   -1.68535598   0.24204470   1.13948955
H   -2.99603902  -0.90623502   1.26845144
H   -3.18036911   0.70626482   1.91570020
C   -3.30290125   0.60551784  -0.22669713
N   -3.71538312   0.96309576  -1.23500675
C    0.10948226   1.67612979   3.63365149
H    0.28777361   2.46195017   4.33763921
H   -0.23273988   2.09514318   2.71049881
H    1.01733793   1.13549068   3.46510917
C   -0.96121538   0.72018428   4.19166114
N   -1.75839843   0.00843941   4.60712469
C    2.63695149   1.15988504  -2.80070350
H    3.28230582   0.57701696  -3.42414777
H    1.75681332   0.59587806  -2.57233533
H    3.14667322   1.40849274  -1.89335733
C    2.24124574   2.45272087  -3.53799075
N    1.94662483   3.41529590  -4.08693462
C    2.29694463  -2.68588857  -0.76013886
H    2.60470232  -3.67460099  -0.49063348
H    1.28379127  -2.53144007  -0.45262459
H    2.92941586  -1.97115848  -0.27636192
C    2.40190149  -2.51384892  -2.28689569
N    2.48004665  -2.38575758  -3.42363555
C   -0.03507756  -2.29290548   2.39864450
H   -0.86149216  -2.40552141   3.06891066
H   -0.39957138  -2.07599139   1.41630463
H    0.58851420  -1.49025747   2.73299249
C    0.78143582  -3.59823232   2.36658611
N    1.38936715  -4.57010748   2.34271718
Cl   1.17446430   0.49091489   0.44696905
