43
Energy:   -266.51290854
C   -1.39190082   3.38278045  -0.18114890
H   -1.31273257   2.83258939   0.73313900
H   -1.51628547   4.42268612   0.03799430
H   -0.50218017   3.24400895  -0.75910974
C   -2.60735781   2.87768380  -0.98061228
N   -3.51232078   2.50161638  -1.57584910
C   -0.92227771   0.43930729  -2.98171263
H   -1.99174508   0.43775340  -2.94798856
H   -0.53395910   0.38926937  -1.98591950
H   -0.58181573  -0.40744825  -3.54027308
C   -0.43194254   1.73225825  -3.65953949
N   -0.06686572   2.69491901  -4.16421239
C   -2.68589297  -0.44619505   0.34624450
H   -1.66659509  -0.16442094   0.18334769
H   -3.25679832  -0.24553141  -0.53619545
H   -2.73529766  -1.49068714   0.57316858
C   -3.26013820   0.36274450   1.52414910
N   -3.68768988   0.96503676   2.40115261
C   -0.52178882  -0.16530317   3.81556628
H   -1.46736080   0.23966288   4.11017840
H   -0.06400492   0.48318486   3.09807324
H    0.11190844  -0.25208049   4.67335214
C   -0.73178931  -1.55659754   3.18962719
N   -0.88814422  -2.59247945   2.72358707
C    3.04164648   1.20485902  -2.47281337
H    3.75171900   1.73392057  -3.07347223
H    3.47860367   0.97473280  -1.52359821
H    2.17354760   1.81334373  -2.32772795
C    2.64019388  -0.10114986  -3.18328972
N    2.34129417  -1.07353283  -3.71227165
C    0.51673284  -2.53634239  -0.72423590
H    1.05726405  -3.45426523  -0.62351922
H    0.27246669  -2.15792846   0.24634950
H    1.12053204  -1.82205466  -1.24396531
C   -0.77868916  -2.78789371  -1.51808966
N   -1.74318972  -2.97518510  -2.10914986
C    2.92443453  -1.51560490   2.43007439
H    3.19275384  -0.51119191   2.17697469
H    1.98990949  -1.76166700   1.97071017
H    3.68137987  -2.18597967   2.08003080
C    2.79383708  -1.64222499   3.95929369
N    2.69660134  -1.73649941   5.09786697
Cl   1.07393755   0.84990603   0.45381387
