43
Energy:   -271.01871855
C   -0.72839318   3.09375410  -1.06992908
H   -0.92355889   3.73144061  -1.90668857
H   -0.94626232   2.08034798  -1.33533472
H    0.30143326   3.17598654  -0.79137132
C   -1.61611360   3.51615701   0.11545198
N   -2.27706179   3.83065518   0.99802206
C   -0.66658326  -0.85835804  -2.51781842
H   -1.51569179  -0.39427346  -2.97448065
H   -0.02641793  -1.25656622  -3.27710604
H   -0.12972982  -0.13287166  -1.94305151
C   -1.13852972  -1.99733088  -1.59499265
N   -1.48991531  -2.84534793  -0.90790691
C   -2.65377858   0.11004897   0.98999898
H   -2.83299040  -0.92028178   1.21627724
H   -3.09584744   0.72358955   1.74699447
H   -1.59950022   0.28960540   0.95600331
C   -3.27697268   0.45148882  -0.37625427
N   -3.74096902   0.70570631  -1.39349192
C   -0.15016327   2.00797806   3.44327796
H   -0.16204025   2.91778510   4.00631461
H   -0.46230857   2.20585466   2.43913193
H    0.84144401   1.60603357   3.43588072
C   -1.11098836   0.99223941   4.08879339
N   -1.82636631   0.23597582   4.56940896
C    2.72290953   1.12371109  -2.72081193
H    3.59290963   0.94815805  -3.31845825
H    2.31889762   0.18785352  -2.39547506
H    2.98883053   1.71307662  -1.86826669
C    1.66950552   1.87506711  -3.55591920
N    0.88519836   2.43448581  -4.17769452
C    2.36806443  -2.75133831  -0.44586495
H    2.65498349  -3.72974119  -0.12135694
H    1.35552041  -2.56216063  -0.15626954
H    3.00989178  -2.02353245   0.00497358
C    2.48867057  -2.66294023  -1.97858799
N    2.57846732  -2.59712384  -3.11976997
C   -0.04415585  -2.17420903   2.53523556
H   -0.87696463  -2.18261360   3.20699376
H   -0.39533740  -2.04025599   1.53342360
H    0.61385628  -1.37077495   2.79294237
C    0.71286091  -3.51125184   2.63936126
N    1.27649429  -4.50674098   2.71688759
Cl   1.30670262   0.56071370   0.51152777
