64
Energy:  -1783.73468502
O    0.26153587  -0.46863718  -2.73986435
H    0.39253680  -0.33217579  -1.80154197
H   -0.62494737  -0.82296191  -2.80938627
O    1.92935799  -0.96037462   2.28854441
H    1.26902393  -1.28657895   2.89992114
H    1.44821013  -0.80574206   1.47563767
O    1.44470965  -3.29930469  -0.37173040
H    2.26473839  -3.25297480   0.11983675
H    1.10526141  -2.40443417  -0.35711937
O   -1.88637287   2.96421617  -1.26598973
H   -1.22027805   2.30852436  -1.05954895
H   -2.05875887   3.40190125  -0.43235511
O    2.13552486  -2.46609729  -2.92762264
H    1.90704610  -2.93882347  -2.12727318
H    1.47421612  -1.77752816  -2.99672508
O   -0.03802113   2.45795941   2.00437219
H   -0.16878010   1.88090124   1.25195090
H    0.89116973   2.36908454   2.21635675
O    2.37386659   1.78309484  -0.60195248
H    1.49490319   1.42989744  -0.46445051
H    2.89879624   1.02600640  -0.86175587
O   -2.32535340   3.83484163   1.30164881
H   -1.46772700   3.51783482   1.58487222
H   -2.93013744   3.12983847   1.53281685
O   -2.12147779  -1.52924975  -1.90015637
H   -1.54959296  -1.33290995  -1.15811171
H   -2.81759017  -0.87443639  -1.84650133
O   -3.22464546   0.68842435  -0.61532877
H   -2.87612802   1.50617202  -0.97037269
H   -2.46105446   0.23970617  -0.25226867
O    1.41405730   2.00955690  -3.19002452
H    1.78858140   2.11117347  -2.31501731
H    0.93386678   1.18243938  -3.15096654
O    3.72562480  -2.54177017   0.94570465
H    3.79788465  -1.94948844   0.19723105
H    3.16992830  -2.07401425   1.56911274
O    3.31695600  -0.76179305  -1.11174329
H    3.18093233  -1.27338441  -1.90924169
H    2.45154439  -0.71631841  -0.70526250
O   -0.52233155   3.95277225  -3.47367037
H    0.19569910   3.31993075  -3.46042386
H   -1.07303343   3.70648521  -2.73050015
O   -0.73348946  -3.06572656   1.26871583
H   -0.87752793  -2.16849290   0.96795593
H    0.02806110  -3.36582642   0.77251761
O   -2.68988531  -3.86305375  -0.52131030
H   -2.59285046  -3.10796676  -1.10153416
H   -2.07616397  -3.69641244   0.19409772
O   -0.21953961  -1.89445869   3.69158592
H   -0.72175329  -1.09350841   3.54161287
H   -0.39499471  -2.43544086   2.92166018
O    2.60560736   1.73849093   2.15656252
H    2.40926019   0.81266325   2.29982012
H    2.61069980   1.83822660   1.20458631
O   -1.59855339   0.32683570   2.84806210
H   -1.03395009   1.09978777   2.84832638
H   -1.46577697  -0.06704887   1.98582245
O   -3.80684461   1.60472188   1.86777993
H   -3.75649804   1.26295212   0.97509269
H   -3.12243993   1.13436336   2.34378932
C   -0.04151893   0.01051761   0.35610934
O   -0.20803967   1.12918893  -0.41706833
O    0.92527962  -0.78707760  -0.19728134
O   -1.22319212  -0.68043517   0.41945692
