64
Energy:  -1795.81573179
O    0.07478072  -1.69040449  -2.12835316
H    0.03766636  -1.16116328  -1.33163608
H   -0.47071416  -2.45296051  -1.93554366
O    2.40183602  -1.16758069   1.13447843
H    2.05274701  -2.05841057   1.10635682
H    1.73755647  -0.63557278   0.69637786
O    2.37493041  -3.07909888  -1.80296476
H    3.04815760  -2.43910504  -1.57186979
H    1.61251936  -2.55073822  -2.03917705
O   -2.62658823   1.90162191   1.38225166
H   -2.17585298   1.89213574   2.22663285
H   -2.07652391   1.36606192   0.81055542
O   -0.19290425   0.36393413  -3.84363840
H   -0.12209047  -0.37781792  -3.24278804
H   -0.27700351   1.12783273  -3.27300884
O   -1.38129697   1.62791632   3.77556897
H   -0.46495774   1.90149813   3.73424994
H   -1.36608127   0.70118247   3.53647756
O    1.20342166   2.67918635   0.85046417
H    0.39344994   3.17054668   0.71356026
H    1.00657798   1.79836629   0.53165317
O   -1.17130960   3.86837187   0.12195031
H   -0.98454980   3.44135390  -0.71411683
H   -1.76246749   3.26534902   0.57264715
O   -2.79633400  -1.83160833  -0.37010320
H   -1.96497194  -1.46633441  -0.06737571
H   -2.97135573  -1.37855436  -1.19493126
O   -0.26990740   2.42354111  -2.04607912
H    0.63042661   2.73124583  -1.94144492
H   -0.35413385   1.70882606  -1.41495302
O   -2.74514226  -0.09731204  -2.57189104
H   -2.28767533   0.21431792  -1.79096683
H   -2.09222308  -0.04399763  -3.26980648
O    4.03983709  -1.07109376  -1.05319594
H    3.56031969  -0.47055497  -1.62385176
H    3.56742485  -1.04028690  -0.22126477
O    2.32251536   0.55814528  -2.47428919
H    1.70006005   0.45872076  -3.19463355
H    1.79530144   0.44221980  -1.68382185
O    2.32026450   3.15244868  -1.60331969
H    2.48939280   2.26559305  -1.92130486
H    2.07518012   3.03562082  -0.68543258
O    0.92696516  -3.40960172   0.47948558
H    1.46352558  -3.35324408  -0.31118412
H    0.43412793  -2.58915603   0.49405195
O   -1.24857360  -3.91777120  -1.16396081
H   -1.87998588  -3.27776286  -0.83541904
H   -0.53927719  -3.90683019  -0.52130169
O    1.31924643  -0.62724115   3.57482684
H    0.39792643  -0.84208266   3.42907215
H    1.74051148  -0.79227805   2.73130421
O    1.28603810   2.11039399   3.53349275
H    1.31830953   2.31736224   2.59949353
H    1.39298706   1.15998901   3.57253292
O   -1.40040554  -0.95142967   2.87788952
H   -0.98519576  -0.95310852   2.01543380
H   -2.33925873  -0.93376636   2.69221631
O   -3.90180863  -0.52148706   1.79444299
H   -3.60330687  -1.01064166   1.02772511
H   -3.59244417   0.37185471   1.64455651
C   -0.27166089   0.12481848   0.28179470
O   -1.31964310   0.58129437  -0.47340158
O    0.90518119   0.36795052  -0.37625418
O   -0.41043429  -1.22283527   0.48758955
