64
Energy:  -1784.42845853
O   -0.93727379  -1.24960370  -2.29297444
H   -0.51688808  -0.83375281  -1.54026218
H   -1.55948070  -1.86754877  -1.90926322
O    2.53067953  -0.77099977   1.61486613
H    2.17586508  -1.36160700   2.27933709
H    1.81720133  -0.66048261   0.98640240
O    1.86893505  -3.01807749  -0.81864576
H    2.78447126  -2.77836623  -0.67524485
H    1.38285982  -2.20619504  -0.67439042
O   -1.67033680   2.19647696   1.73561759
H   -1.24289760   1.56774435   1.15404827
H   -2.32003296   1.67953892   2.21195970
O    1.28447355  -2.39398702  -3.40672438
H    1.58314938  -2.79657214  -2.59127983
H    0.44099068  -1.99963341  -3.18479257
O    0.44091919   2.24764988   3.46998656
H    1.20247336   2.20188749   2.89190966
H   -0.30505888   2.33983301   2.87732236
O    1.06198345   2.76252585  -0.70730061
H    0.54185774   1.98174655  -0.51734069
H    1.26346050   2.69544366  -1.64064879
O   -1.40340652   4.07436707  -0.25949669
H   -0.53284691   3.78342310  -0.53099147
H   -1.60258555   3.54642625   0.51370319
O   -3.28486472  -0.35663381   0.24705309
H   -2.34732021  -0.42290460   0.42829965
H   -3.36581704   0.40902745  -0.32166600
O   -2.79838576   1.98875866  -1.48923117
H   -2.58731586   2.87655906  -1.20028168
H   -2.06803064   1.45469823  -1.17683288
O   -1.27522182   1.13993960  -3.63476817
H   -1.13898195   0.27917281  -3.23885015
H   -1.87133351   1.58836139  -3.03493437
O    4.13080210  -1.48955169  -0.51434372
H    3.68885566  -0.96889730  -1.18504052
H    3.70528522  -1.23659797   0.30491304
O    2.42689632  -0.15808278  -2.29839478
H    2.13711962  -0.87402854  -2.86379992
H    1.82703036  -0.18317392  -1.55289957
O    1.31613534   2.10439715  -3.36310116
H    0.41040983   1.82266321  -3.49162788
H    1.76619070   1.32463141  -3.03806670
O   -0.27542514  -3.21590033   0.89036692
H   -0.42335204  -2.27021714   0.88464120
H    0.48188031  -3.34380881   0.31908790
O   -2.55028878  -2.86105530  -0.74994676
H   -2.89963827  -2.03920229  -0.40535367
H   -1.80196886  -3.05862353  -0.18672750
O    1.05515706  -2.47236676   3.22190914
H    0.51132082  -1.72613493   3.47412345
H    0.62189984  -2.83476131   2.44912830
O    2.48490482   2.02958079   1.65757749
H    2.51222057   1.07289401   1.64221185
H    2.06824078   2.27108625   0.83035441
O   -0.58611326  -0.29649745   3.53399564
H   -0.14721743   0.54928390   3.62485939
H   -0.63044009  -0.44359657   2.58920527
O   -3.24464785   0.33875981   2.95213584
H   -3.33776751   0.00124797   2.06126753
H   -2.39122614   0.01705366   3.24266706
C   -0.02575803   0.05381986   0.36984892
O   -0.72744046   0.87389257  -0.47399995
O    0.83769240  -0.72048906  -0.35953290
O   -0.89829513  -0.75294463   1.05219067
