64
Energy:  -1792.99190554
O    0.41579610  -1.65193621  -1.99521973
H    0.29748623  -1.01090656  -1.29428063
H   -0.10813529  -2.40517179  -1.72252225
O    1.73304478  -0.29349449   2.31495424
H    1.22234233  -0.92835166   2.81731988
H    1.21940868  -0.14702348   1.52062683
O    2.97296335  -2.54475164  -2.04609297
H    3.17872969  -2.56517387  -1.11149412
H    2.04335995  -2.31945444  -2.08229416
O   -2.59646409   2.17786241   0.87541325
H   -2.20260217   2.25560864   1.74435522
H   -2.02661135   1.56759723   0.40735756
O   -0.36257045  -0.14705584  -4.13361517
H   -0.06474236  -0.76267154  -3.46387822
H   -0.22143355   0.71651131  -3.74558939
O   -1.43662963   2.05443208   3.35340397
H   -0.49704686   2.20352722   3.24763667
H   -1.54443810   1.11047991   3.23694161
O    1.14537227   2.98423244   0.31770144
H    0.34687762   3.41169294   0.00799890
H    0.98574710   2.05025877   0.18188966
O   -1.17141052   3.87628457  -0.82095249
H   -0.87390923   3.27230957  -1.50134872
H   -1.74294954   3.34769963  -0.26402076
O   -2.71699152  -1.80560113  -0.43894170
H   -1.92980620  -1.38025408  -0.09886670
H   -2.84310453  -1.41934202  -1.30561999
O    0.08263450   2.06233690  -2.54034483
H    1.00350177   2.30045053  -2.43293335
H   -0.09458197   1.45785371  -1.81963251
O   -2.70999803  -0.24938505  -2.70752663
H   -2.26300887   0.15823319  -1.96571809
H   -2.03987398  -0.30860201  -3.38845170
O    3.40653970  -1.63914679   0.65562879
H    3.48240026  -0.97340831  -0.02794220
H    2.91321153  -1.21012018   1.35476778
O    3.20963953   0.12708716  -1.41209392
H    3.12989201  -0.67647408  -1.92606037
H    2.35342085   0.23269141  -0.99740228
O    2.67049607   2.77310848  -1.93853133
H    2.98177623   1.87258956  -1.84686794
H    2.23742158   2.96320954  -1.10634150
O    0.96126053  -3.02712336   0.91841000
H    1.86605796  -2.74138116   0.79221626
H    0.43747537  -2.24119688   0.76284481
O   -0.92560078  -3.81030615  -0.96451530
H   -1.62549149  -3.19737688  -0.73934303
H   -0.27127430  -3.69080317  -0.27617836
O    0.24946451  -2.29480574   3.48729071
H   -0.55493527  -1.79707953   3.34086163
H    0.44289628  -2.69335122   2.63877583
O    1.25663898   2.32813858   2.95968522
H    1.23740709   2.68323121   2.07099450
H    1.47042805   1.40236391   2.84363633
O   -1.82942772  -0.58928308   2.79412744
H   -1.29799982  -0.61074340   1.99829096
H   -2.73066100  -0.52021241   2.47910414
O   -4.08656479  -0.13822297   1.30685909
H   -3.69351440  -0.73474195   0.66974973
H   -3.68799863   0.71129223   1.11791256
C   -0.30872387   0.29782786   0.24264268
O   -1.21773776   0.62461619  -0.72888268
O    0.96043819   0.43771732  -0.25410412
O   -0.50599880  -1.00052409   0.63398016
