64
Energy:  -1798.99724323
O    0.27864821  -1.57288082  -2.03026466
H    0.11200574  -1.04412100  -1.24996011
H   -0.33573482  -2.30358484  -1.96071635
O    2.11864744  -1.00137490   1.79720463
H    1.66250312  -1.61649249   2.37148204
H    1.43572696  -0.66112040   1.21920953
O    4.25689252  -1.21282429  -2.44875388
H    3.69042256  -0.45397199  -2.58834904
H    3.80061373  -1.73472370  -1.78870651
O   -2.31872017   1.95916489   1.53911374
H   -1.76751517   1.88790046   2.31842515
H   -1.85560640   1.45431396   0.87062065
O   -0.15744414   0.47318613  -3.75708851
H   -0.05028842  -0.25423359  -3.14421818
H   -0.30142693   1.23767259  -3.19935986
O   -0.75778391   1.44378491   3.75236822
H    0.17683691   1.50614672   3.55532311
H   -0.99204792   0.54462583   3.52244395
O    1.20108501   2.88014604   0.78271128
H    0.38425649   3.37230249   0.70021856
H    0.97868749   1.99560041   0.49228018
O   -1.20686336   4.04508066   0.17100430
H   -1.06676001   3.64281261  -0.68619072
H   -1.68962065   3.38577073   0.66948966
O   -2.78595409  -1.57061472  -0.39695271
H   -1.95209096  -1.22002729  -0.08391504
H   -2.97795429  -1.06436731  -1.18630772
O   -0.42464171   2.60315878  -2.05685777
H    0.48478250   2.87675115  -1.93716373
H   -0.55142393   1.90425075  -1.41523040
O   -2.68312872   0.19271142  -2.48470966
H   -2.18679380   0.44973057  -1.70764811
H   -2.03758499   0.18907193  -3.19145706
O    2.55027937  -2.38746076  -0.61775493
H    1.82322764  -2.05528532  -1.14433551
H    2.54253277  -1.84539262   0.17112654
O    2.34745247   0.79889671  -2.54480720
H    1.64804889   0.67566448  -3.18658621
H    1.94390774   0.57961357  -1.70498675
O    2.17580707   3.38210336  -1.70631494
H    2.39619274   2.50548474  -2.02127810
H    1.98600384   3.26211520  -0.77582613
O    0.38890591  -3.54014231   0.58651751
H    1.25207177  -3.43883263   0.18537800
H    0.02258907  -2.65584392   0.59427431
O   -1.41942049  -3.66353592  -1.45697721
H   -2.00993124  -2.99246057  -1.11465167
H   -0.79024893  -3.81228198  -0.75110923
O    0.60602033  -2.83618622   3.21511368
H   -0.15225706  -2.25372126   3.25963127
H    0.53886226  -3.25231787   2.35572081
O    1.89835171   1.48503550   3.03982968
H    1.72524139   2.05580209   2.29117077
H    2.04389971   0.62106723   2.65433461
O   -1.46395693  -1.02496443   2.87273589
H   -1.02339952  -0.92295532   2.02909191
H   -2.39019187  -0.88115389   2.67872759
O   -3.87188195  -0.29567529   1.78876752
H   -3.59589738  -0.77508246   1.00759332
H   -3.44891223   0.55916297   1.70765025
C   -0.17210693   0.24426602   0.33364012
O    1.03666058   0.43424404  -0.28259672
O   -0.37474612  -1.09523482   0.53802613
O   -1.17214113   0.74208539  -0.46001452
