64
Energy:  -1787.78825254
O    0.64099851  -1.85149705  -1.81675384
H    0.37767463  -1.26110302  -1.11083085
H   -0.13121611  -2.39410814  -1.97640859
O    1.85288643  -0.33574439   2.01696218
H    1.46770155  -1.02669382   2.55589942
H    1.23940805  -0.22822569   1.29010878
O    2.71339083  -3.20335216  -0.67921941
H    3.21557594  -2.49013853  -0.28505157
H    2.00621883  -2.76562571  -1.15307082
O   -2.73158518   1.89612959   0.98460322
H   -2.24665344   2.02293347   1.80007476
H   -2.17546181   1.31828929   0.46205251
O    0.89237609  -0.01589506  -3.76235718
H    0.81325789  -0.68345084  -3.08093115
H    0.59181792   0.79087881  -3.34401217
O   -1.33923779   1.89259921   3.35977589
H   -0.40155637   2.07211876   3.29079663
H   -1.40911115   0.94243798   3.26734648
O    0.80787408   3.00758773   0.50000837
H   -0.01320280   3.39648797   0.19864277
H    0.71888970   2.07538655   0.30172931
O   -1.54041906   3.74614582  -0.69219486
H   -1.16789835   3.18867504  -1.37533943
H   -2.04690534   3.14732081  -0.14345804
O   -2.86776068  -1.87812656  -0.20576655
H   -2.00028520  -1.56450690   0.04989112
H   -3.17048420  -1.24366750  -0.85542186
O   -0.00411532   2.14328356  -2.38984860
H    0.82837991   2.57428724  -2.19640773
H   -0.11497275   1.50725588  -1.68315824
O   -1.82294026  -0.45843630  -3.30378288
H   -1.70132719  -0.11804383  -2.41745615
H   -0.98060788  -0.31278671  -3.73447327
O    3.91786130  -0.97403399   0.32350346
H    3.67369502  -0.46298371  -0.44814561
H    3.25076557  -0.75828473   0.97516855
O    2.86152462   0.49778957  -1.77724271
H    2.51466146   0.22673447  -2.62721149
H    2.10760158   0.46374284  -1.18845352
O    2.42018370   3.18977507  -1.67890044
H    2.73591046   2.28719038  -1.72236698
H    1.97078175   3.24647310  -0.83565963
O    0.61307719  -3.40442630   1.06621437
H    1.39962360  -3.44158897   0.52197590
H    0.18493975  -2.58640367   0.81368883
O   -1.76205480  -3.03090745  -2.44064975
H   -1.82514033  -2.18287590  -2.88007501
H   -2.10156759  -2.87078305  -1.56012542
O    0.62677229  -2.29274447   3.52992676
H   -0.19216402  -1.80228109   3.45906897
H    0.66135436  -2.81879113   2.73098319
O    1.35772894   2.18078039   3.01918056
H    1.21000845   2.61067565   2.17680263
H    1.57930295   1.27768042   2.79214034
O   -1.57030049  -0.76248742   2.87231590
H   -1.13409847  -0.76903377   2.02030840
H   -2.50416013  -0.73816356   2.66363823
O   -4.04110545  -0.40721721   1.76291557
H   -3.68321641  -1.01105846   1.11212909
H   -3.70287568   0.45058072   1.50598138
C   -0.47604457   0.20496742   0.14736178
O   -1.40867537   0.41068863  -0.83489937
O    0.76775564   0.52467403  -0.32997195
O   -0.49566047  -1.11166168   0.52668122
