64
Energy:  -1795.75609816
O   -0.48825417  -1.53068244  -2.31087911
H   -0.36051160  -0.98572471  -1.53439038
H   -0.96290253  -2.29763337  -1.99036849
O    1.83479566  -0.59775045   2.18199658
H    1.32265081  -1.27047445   2.63075255
H    1.34676710  -0.42127780   1.37768485
O    2.57511776  -2.06837385  -0.64073457
H    3.31742775  -1.70855966  -0.15520240
H    1.88957210  -1.40562963  -0.55689487
O   -2.36727144   2.31440640   1.00894196
H   -1.79627270   1.72574165   0.51531649
H   -3.13796750   1.78507683   1.21405078
O    2.00684454  -1.91975114  -3.31959136
H    2.41254395  -2.07242210  -2.46616801
H    1.07085184  -1.85076329  -3.13146857
O   -1.22513242   1.96730063   3.47269675
H   -0.27711354   1.99831409   3.34412690
H   -1.59085084   2.17593872   2.61307355
O    1.35206025   2.57229125   0.31278135
H    0.67939394   3.16734922  -0.01836499
H    0.99755981   1.69737669   0.15439633
O   -0.78480057   4.00499031  -0.70456064
H   -0.71666907   3.47518131  -1.49884798
H   -1.40733443   3.53139115  -0.15284760
O   -3.19309236  -0.95946320  -0.83192073
H   -2.35240092  -0.80639317  -0.40059797
H   -3.11816587  -0.50590475  -1.67150550
O   -0.54939370   2.16911845  -2.81991903
H    0.32912856   1.86491683  -3.04771689
H   -0.78010897   1.67084316  -2.03587563
O   -2.38903076   0.07597754  -3.38768297
H   -1.74317980  -0.55346589  -3.06688808
H   -1.94181494   0.92123554  -3.34562628
O    4.26722475  -0.54565154   0.86995954
H    4.14212341   0.21578741   0.30357431
H    3.48699551  -0.56327545   1.42418294
O    1.84624186   0.70801421  -2.59404089
H    1.97091762  -0.14713539  -3.00563165
H    1.40507682   0.51424183  -1.76696319
O    3.71108375   1.61004680  -0.77933420
H    3.24461182   1.23467977  -1.52615104
H    3.03372201   2.06103723  -0.27532969
O    0.31720919  -3.18897570   0.54699534
H   -0.11038649  -2.33339927   0.50981003
H    1.18440951  -3.04044873   0.16998713
O   -1.94945202  -3.48640074  -1.11019813
H   -2.45226102  -2.69914427  -0.90129097
H   -1.22774625  -3.48410512  -0.48141569
O    0.17197232  -2.50774613   3.21619549
H   -0.56242845  -1.89440875   3.18965076
H    0.21614573  -2.86772565   2.33036520
O    1.44854781   1.98427275   2.97361582
H    1.42019606   2.34450196   2.08723952
H    1.60635278   1.04863419   2.84748131
O   -1.82491319  -0.62287402   2.86026943
H   -1.56358630   0.24869945   3.15742223
H   -1.47826655  -0.68696639   1.97034802
O   -4.09054350   0.21600606   1.51247570
H   -3.90531303  -0.16527209   0.65425166
H   -3.39691712  -0.12095849   2.07954641
C   -0.31752503   0.15109689   0.21971856
O   -1.03794054   0.87361783  -0.69456989
O    0.93023615  -0.10732356  -0.28367958
O   -0.96097868  -1.03127762   0.47611306
