64
Energy:  -1791.71020929
O   -0.79417863  -1.41795416  -2.30702910
H   -0.66095962  -0.86762770  -1.53526144
H   -1.06043865  -2.26669320  -1.95350472
O    2.61829684  -0.83074166   1.49546583
H    2.28716275  -1.53240252   2.05604954
H    1.86757250  -0.57862408   0.95780280
O    1.92589930  -1.14436478  -2.33572114
H    1.74316765  -0.55287860  -1.60566286
H    1.07563182  -1.52596823  -2.55402340
O   -1.89844777   1.72690586   1.81220333
H   -1.21511821   1.77251838   2.48094248
H   -1.49562937   1.24488424   1.08996768
O   -1.16587441   0.71598009  -4.00570295
H   -1.14061299  -0.07800857  -3.47168448
H   -1.26227039   1.42776635  -3.37301030
O    0.09010624   1.51369230   3.68197799
H    0.94485744   1.69198245   3.28974736
H   -0.04244687   0.57467487   3.55194805
O    1.40017550   2.93473999   0.19168247
H    0.55147740   3.35533168   0.32968977
H    1.18777614   2.01875809   0.01253024
O   -1.16696638   3.91606383   0.34889644
H   -1.23132707   3.55161359  -0.53386376
H   -1.47868641   3.21502975   0.92127193
O   -2.54673499  -1.85230380   0.45320588
H   -1.65727078  -1.49886504   0.44030986
H   -3.07194303  -1.19728361  -0.00650807
O   -1.03719920   2.58121768  -2.02060732
H   -0.14430220   2.85838574  -2.22589896
H   -0.92716582   1.81626024  -1.45583779
O   -3.66733476   0.43219531  -0.51229854
H   -3.82227971   0.95458336   0.27467963
H   -2.72141264   0.48108040  -0.65040516
O    3.47233474  -2.47748642  -0.53962306
H    3.02727239  -2.05693901  -1.27534803
H    3.33103605  -1.88353361   0.19759237
O    1.55657067   0.98932792  -3.98648461
H    0.60857272   0.92234301  -4.10069826
H    1.78295425   0.25084797  -3.42112658
O    1.52154498   3.33063637  -2.53718332
H    1.66528030   2.49289429  -2.97736534
H    1.66243000   3.14156521  -1.60947897
O    1.02466081  -3.45275414   0.15417535
H    1.91411625  -3.27906636  -0.15393732
H    0.62588217  -2.58651443   0.23685671
O   -1.42268010  -3.80536547  -1.09016615
H   -1.92256406  -3.21841394  -0.52286044
H   -0.54869235  -3.82899273  -0.70052656
O    1.50797266  -2.98143669   2.81986186
H    0.77231651  -2.40963969   3.03915634
H    1.31867746  -3.28640618   1.93251031
O    2.51110244   1.79598961   2.43393100
H    2.19059145   2.26340373   1.66255003
H    2.61507453   0.89094875   2.14012375
O   -0.44953090  -1.08201256   3.08022812
H   -0.26434093  -0.98661296   2.14597150
H   -1.40207299  -1.01285351   3.14435639
O   -3.10010958  -0.53843488   2.75866879
H   -2.98604673  -1.09305347   1.98690474
H   -2.74573425   0.31162516   2.49780889
C    0.02321923   0.15965380   0.26791811
O    1.15119924   0.43073233  -0.46087260
O   -0.04343068  -1.18485944   0.52275280
O   -1.08296958   0.54567291  -0.44279686
