64
Energy:  -1792.48829059
O   -1.18655301  -2.52879234  -3.18983640
H   -1.32695816  -1.58238619  -3.21870920
H   -1.21760251  -2.74771069  -2.25852414
O    2.19583949   0.89919379   1.27744951
H    2.01185911   0.67164307   2.18882416
H    1.43453045   0.58101491   0.79226648
O    2.05225073  -1.99567974  -0.52270915
H    2.84701445  -1.46357056  -0.48473161
H    1.33715010  -1.36567005  -0.43354234
O   -3.17487307   1.91458163   0.35235177
H   -2.55788348   2.53502155   0.74043680
H   -2.64641318   1.14059396   0.15765948
O    1.38074494   0.17467462  -2.93029057
H    1.51584375  -0.75258007  -3.12568480
H    1.05661356   0.18541241  -2.02970443
O   -0.94828448   1.22754654   3.09217047
H   -0.74398711   0.65817281   2.35034300
H   -1.89159999   1.12665468   3.21948316
O   -0.05096973   2.74799425  -0.99185844
H   -0.84813180   2.81668699  -1.51725903
H   -0.00192293   1.82316109  -0.74997027
O   -1.20258412   3.42234718   1.43166088
H   -0.99183362   2.70699823   2.03173750
H   -0.69257646   3.23305248   0.64407498
O   -0.92797964  -3.81577525   2.08146163
H   -0.09356683  -3.35411024   2.16424165
H   -1.59002540  -3.12664873   2.13652443
O   -2.48424593   2.59241459  -2.24593570
H   -2.84633839   2.37499227  -1.38695465
H   -2.15883644   1.75935972  -2.58705167
O   -1.34512868   0.19514749  -2.94774057
H   -0.40965838   0.30600806  -3.11755547
H   -1.39999698   0.02700668  -2.00702277
O    3.69996996   1.46506198  -2.27316607
H    3.37245488   2.11216538  -1.64848782
H    2.91373768   1.02806116  -2.60042888
O    1.54446370  -2.52888123  -3.16053182
H    0.59258717  -2.61529034  -3.21245855
H    1.73005752  -2.47839035  -2.22285520
O    2.59738675   3.07504931  -0.36239995
H    2.55873703   2.40892128   0.32390282
H    1.70258067   3.12546518  -0.69857277
O    4.14684999  -0.28610710  -0.22127164
H    4.09933239   0.28059258  -0.99122320
H    3.54091067   0.10922820   0.40544951
O   -1.15324013  -2.83027396  -0.49769951
H   -0.96172393  -3.27010489   0.33061332
H   -1.06719226  -1.89772793  -0.29974619
O    1.29312986  -2.22187319   2.11999312
H    0.61348108  -1.60621530   1.84563065
H    1.80775935  -2.37961079   1.32847105
O    1.51064205   0.02049523   3.78730981
H    0.64205372   0.40537091   3.67044715
H    1.46760103  -0.81481981   3.32187656
O   -3.65377148   0.69204405   2.76961619
H   -3.39452986  -0.20032754   2.54005446
H   -3.60595060   1.17552141   1.94487704
O   -2.72446399  -1.73335098   1.87326962
H   -3.09957150  -1.96651878   1.02405882
H   -1.93092022  -1.24299845   1.65861986
C   -0.65546578   0.18948392   0.28331096
O   -1.77752983  -0.20177000  -0.39848887
O    0.43489214   0.09760608  -0.54117485
O   -0.47578276  -0.62397620   1.37132605
