64
Energy:  -1792.12877435
O    0.42846440  -1.63177610  -2.17342674
H    0.36762752  -1.01243158  -1.44614200
H   -0.04954483  -2.40416572  -1.87151070
O    1.58999240  -0.47644307   2.64174242
H    1.17503414  -1.20882696   3.09743455
H    1.09467040  -0.38885699   1.82736128
O    3.12180336  -2.14927107  -2.24742041
H    3.27808348  -1.95041011  -1.32423966
H    2.17488261  -2.06003973  -2.35517341
O   -2.49420564   2.02280315   1.08364094
H   -2.09630385   2.05271830   1.95370479
H   -1.91276698   1.45933621   0.57308640
O   -0.49242973   0.05890015  -4.12971825
H   -0.12793830  -0.59208175  -3.53005133
H   -0.33293187   0.89839849  -3.69840071
O   -1.33909056   1.80950596   3.54306244
H   -0.41166252   2.00841941   3.41444473
H   -1.40805457   0.86923393   3.37764080
O    1.30658305   2.86835558   0.42549848
H    0.47674125   3.30022580   0.22281016
H    1.15515570   1.94686192   0.21537699
O   -1.09363964   3.86385191  -0.44381341
H   -0.87954890   3.34277925  -1.21768697
H   -1.66180046   3.29683011   0.07763785
O   -2.52881290  -1.82434032  -0.43383591
H   -1.73869432  -1.38953878  -0.11306794
H   -2.72033809  -1.39102411  -1.26557325
O   -0.07352943   2.23145839  -2.44564207
H    0.81992413   2.56938802  -2.38419162
H   -0.12756894   1.56925845  -1.75658270
O   -2.73678139  -0.12264487  -2.57071266
H   -2.24927961   0.25033936  -1.83623554
H   -2.10629607  -0.14502421  -3.29058714
O    2.91689074  -1.36593068   0.39255957
H    2.88036222  -1.18288306   1.33138388
H    2.22602280  -0.82161386   0.01486586
O    2.92622174   0.59387780  -2.27501173
H    3.13660965  -0.31906870  -2.47121944
H    2.22615950   0.54427738  -1.62410121
O    2.45268005   3.24913172  -2.02111341
H    2.78197320   2.36827400  -2.19968427
H    2.16498379   3.21740471  -1.10872308
O    0.89479277  -3.25290462   0.88483303
H    1.79331979  -3.01448414   0.65671744
H    0.39794175  -2.44107897   0.78329481
O   -0.85143790  -3.83881369  -1.15104794
H   -1.53772703  -3.22349207  -0.89294257
H   -0.20829930  -3.79154131  -0.44367964
O    0.21611087  -2.68876255   3.51390131
H   -0.55363656  -2.13919301   3.36661224
H    0.44346900  -3.02104793   2.64549671
O    1.32368189   2.20824647   3.08205441
H    1.34865474   2.52426065   2.17886936
H    1.48609661   1.26754992   3.01174575
O   -1.68380968  -0.80382725   2.80200601
H   -1.14119019  -0.77155599   2.01412626
H   -2.58113666  -0.72230901   2.47891019
O   -3.95932072  -0.31579222   1.38297108
H   -3.55181109  -0.86569632   0.71381248
H   -3.58380994   0.55313344   1.24087357
C   -0.09052212   0.25292972   0.22638227
O   -1.11152202   0.59867958  -0.61917945
O    1.10379026   0.34448477  -0.43869999
O   -0.27413060  -1.03346587   0.66141620
