64
Energy:  -1785.60908717
O    0.23738399  -0.98714204  -2.29978235
H    0.13175872  -0.61963977  -1.42227609
H   -0.36123968  -1.73375710  -2.32093640
O    2.19312616  -0.87747714   1.77045930
H    1.85780989  -1.68257832   2.16492976
H    1.48769687  -0.57980838   1.19600766
O    2.41955353  -2.58791646  -1.88390738
H    3.00416281  -2.08992507  -1.31253323
H    1.66477607  -2.01380646  -2.01406321
O   -2.35827513   1.66858362   2.01017148
H   -1.77346791   1.50231154   2.74948599
H   -1.89662085   1.30794224   1.25317415
O   -0.64005721   1.28145075  -3.56785880
H   -0.35190334   0.46956514  -3.15067664
H   -0.60381655   1.93576509  -2.87015456
O   -0.68528925   0.91283355   4.04378721
H    0.21487456   1.14293563   3.81359166
H   -0.81814922   0.04737476   3.65705582
O    1.11163692   3.03087445   1.13122148
H    0.24284670   3.42375109   1.21538419
H    0.95036858   2.17429673   0.73562196
O   -1.45187469   4.01092972   0.93261304
H   -1.26672200   3.71743137   0.04053174
H   -1.85776027   3.25388167   1.35494821
O   -2.71341140  -1.49986561  -0.46500933
H   -1.87719931  -1.15027904  -0.15716130
H   -3.01528772  -0.86381626  -1.11350279
O   -0.44647973   2.95088546  -1.40834514
H    0.43976369   3.16560718  -1.11731415
H   -0.65543317   2.13267091  -0.95768424
O   -2.95069806   0.66981680  -2.12332217
H   -2.39563713   0.77947320  -1.35123753
H   -2.36847220   0.84052315  -2.86366279
O    3.96664144  -1.00172079  -0.31604311
H    3.67055378  -0.28703646  -0.87977199
H    3.40605779  -0.94503153   0.45775542
O    2.73893980   0.67788412  -2.12170061
H    2.38797998  -0.04583485  -2.64063211
H    2.09604273   0.80707318  -1.42440198
O    1.87988221   2.10919848  -4.32736418
H    0.95998496   1.87049195  -4.21317103
H    2.31386979   1.77450957  -3.54259035
O    0.63292063  -3.43335106  -0.02888347
H    1.37625937  -3.30248202  -0.61757070
H    0.29547839  -2.55201817   0.13116936
O   -1.29757137  -3.24329422  -1.96503926
H   -1.90630357  -2.69267016  -1.47260642
H   -0.63389278  -3.49949681  -1.32463095
O    0.96115494  -3.17390962   2.68319175
H    0.17209769  -2.65755565   2.84750572
H    0.89463269  -3.42749214   1.76259274
O    1.87520306   1.45240147   3.23900455
H    1.66533200   2.08180234   2.54904765
H    2.04139398   0.63264586   2.77358735
O   -1.18913068  -1.43255523   2.75223878
H   -0.81181335  -1.16488203   1.91425636
H   -2.13330150  -1.32791844   2.63466139
O   -3.71559054  -0.72105027   1.97043219
H   -3.46148734  -1.03846722   1.10388162
H   -3.36567791   0.16892386   2.01213409
C   -0.16294594   0.31020072   0.42887660
O    0.97902981   0.73363770  -0.19845975
O   -0.23543852  -1.05673347   0.37113139
O   -1.25499132   0.85277312  -0.19628922
