64
Energy:  -1785.09616344
O   -0.49686073  -1.31132995  -2.35896459
H   -0.26542162  -0.82778800  -1.56596083
H   -1.04004780  -2.03571659  -2.04841082
O    2.09811634  -0.81769345   2.11822174
H    1.63590788  -1.56033347   2.50691312
H    1.57198264  -0.58061668   1.35454001
O    2.20476356  -2.68389021  -0.63742959
H    3.04884647  -2.41436668  -0.27533435
H    1.64673353  -1.91158800  -0.54586738
O   -2.18194801   2.18835013   1.19582624
H   -1.62784233   1.60471093   0.67759460
H   -2.84915136   1.61436262   1.57213712
O    1.98957803  -2.03082231  -3.28156601
H    2.21235296  -2.43421955  -2.44259412
H    1.08923223  -1.72574016  -3.16960991
O    0.04740694   3.01938740   2.59041708
H    0.60707489   3.00337479   1.81404910
H   -0.80846426   2.72882427   2.27531488
O    1.11478232   2.89033776   0.07310686
H    0.34065799   3.41617227  -0.12804344
H    0.81290545   1.98429621   0.00836952
O   -1.24533735   4.10840566  -0.61447633
H   -1.15273142   3.59514063  -1.41710637
H   -1.70882350   3.52806994  -0.01063621
O   -3.15859447  -0.66581678  -0.56818446
H   -2.28148829  -0.61915885  -0.18773783
H   -3.08720678  -0.18893311  -1.39505665
O   -0.66534089   2.41934858  -2.70013919
H    0.26628470   2.57051695  -2.85968141
H   -0.68628520   1.78544732  -1.98322750
O   -2.50726498   0.34086646  -3.14352076
H   -1.82120669  -0.28989974  -2.92514064
H   -2.05942865   1.18669548  -3.15926038
O    4.20694233  -1.06529972   0.29739151
H    3.87736240  -0.55420372  -0.44179033
H    3.56498524  -0.92275578   0.99295184
O    2.89911814   0.16903332  -1.91833820
H    2.71404918  -0.51626214  -2.56048418
H    2.18174742   0.10699789  -1.28765388
O    2.07672342   2.72763519  -2.47829497
H    2.42523202   1.83669003  -2.44682534
H    1.82923509   2.92060072  -1.57400206
O   -0.16002432  -3.32237437   0.54804330
H   -0.40664139  -2.39806274   0.58059910
H    0.70205286  -3.32623694   0.13206269
O   -2.20387491  -3.16028677  -1.28616244
H   -2.64116044  -2.36055463  -0.99385829
H   -1.53943217  -3.32844056  -0.61797684
O    0.43089222  -2.75834270   3.14439225
H   -0.21547244  -2.06704999   3.28777622
H    0.23984657  -3.08706796   2.26594298
O    0.87196278   0.82525946   3.95503051
H    0.62598827   1.63280926   3.50381913
H    1.37291260   0.33089740   3.30627225
O   -1.30060672  -0.62102720   3.16280084
H   -0.62268850  -0.04675662   3.51899185
H   -1.11252526  -0.66147986   2.22513309
O   -3.75994342   0.13754233   2.05937435
H   -3.65276735  -0.17904253   1.16242443
H   -2.97844991  -0.17119115   2.51783194
C   -0.09228502   0.11482261   0.30406949
O   -0.72329687   0.92207628  -0.60539405
O    1.05192781  -0.39286398  -0.25282378
O   -0.92543604  -0.91475381   0.65565446
