64
Energy:  -1784.71961198
O    0.98241943  -1.53566873  -2.48202027
H    0.77993114  -0.93984214  -1.76075679
H    0.37930551  -2.26947521  -2.36364169
O    1.50563094  -0.62736436   2.39496295
H    1.19222252  -1.42750277   2.81660917
H    0.95930030  -0.53775694   1.61411393
O    2.96184314  -2.61858636  -0.95849515
H    3.19225602  -1.83747483  -0.45549760
H    2.35102085  -2.30348547  -1.62470788
O   -2.52291325   2.08098364   1.01162721
H   -2.07793267   2.07953277   1.85910702
H   -2.01818680   1.47025537   0.47451080
O   -0.44437939  -0.04074996  -4.29811825
H    0.17431789  -0.55410057  -3.77858318
H   -0.51450700   0.79291542  -3.83302041
O   -1.33728640   1.80594400   3.46312015
H   -0.39980191   1.97380560   3.36732256
H   -1.42612288   0.86132680   3.33647786
O    1.09282311   2.81879934   0.41607327
H    0.34871646   3.34642080   0.12598235
H    0.88173848   1.92947054   0.13187365
O   -1.20298899   3.92473348  -0.59281327
H   -1.01471456   3.39015252  -1.36418075
H   -1.74073686   3.36165668  -0.03603361
O   -2.83663460  -1.90038448   0.06318625
H   -1.97093795  -1.52407524   0.22190775
H   -2.98705004  -1.76989928  -0.87307261
O   -0.47009067   2.17126638  -2.61283514
H    0.48578814   2.21096709  -2.64368021
H   -0.66174478   1.53442660  -1.92440531
O   -2.16941114  -1.21336242  -2.52034633
H   -1.83036596  -0.65378550  -1.82166623
H   -1.72499843  -0.90643039  -3.31061333
O    3.21026276  -0.20979752   0.31107961
H    2.38405883  -0.03326146  -0.13886921
H    2.95578967  -0.40133422   1.21373623
O    2.21607107   1.73032559  -2.44112269
H    1.71934575   1.11832767  -1.89802569
H    2.86501272   2.10660513  -1.84654697
O    3.73160129   2.45879617  -0.26331943
H    3.74424881   1.52825396  -0.03934827
H    2.86752257   2.76120028   0.01623658
O    0.65297081  -3.31905928   0.36537781
H    1.51976368  -3.19685052  -0.02187790
H    0.27392582  -2.44038417   0.38744090
O   -0.74265744  -3.56340482  -2.02934589
H   -1.35857656  -2.83145390  -2.06286211
H   -0.41322791  -3.55888580  -1.13063146
O    0.18743920  -2.93207150   3.11275386
H   -0.55688580  -2.33124552   3.07782122
H    0.32965635  -3.19115431   2.20232416
O    1.32801521   2.04287681   3.02964702
H    1.42474877   1.09887086   2.90423873
H    1.26385142   2.39745031   2.14285928
O   -1.64552580  -0.81727467   2.81069782
H   -1.16616235  -0.77070951   1.98348912
H   -2.56109681  -0.68402281   2.56532971
O   -4.05356042  -0.12002973   1.69880005
H   -3.73594488  -0.76062290   1.06240975
H   -3.64330109   0.70369271   1.43536036
C   -0.26619446   0.23677733   0.04783149
O   -1.33295240   0.52222440  -0.76303586
O    0.89416573   0.33006067  -0.67463736
O   -0.39607581  -1.03468999   0.54208031
