64
Energy:  -1782.65814483
O   -0.11227769  -1.64441201  -2.44110371
H    0.13581655  -1.12648412  -1.67531536
H   -0.81335669  -2.21572804  -2.12754656
O    2.99999451   0.81078291   1.09707571
H    2.48784550   1.43575438   1.61024810
H    2.37802130   0.45437092   0.46276374
O    2.10294905  -2.39370994   0.37684291
H    2.30693926  -2.16881096   1.28460955
H    1.67856178  -1.61107695   0.02525665
O   -2.50414786   1.56180407   1.24753921
H   -1.72488607   1.19658447   0.82849560
H   -2.99903036   0.79715296   1.54187207
O    2.35922914  -2.83219112  -2.39549565
H    2.47524378  -2.79131574  -1.44623191
H    1.47590990  -2.49469210  -2.54406679
O   -0.94556794   2.28001946   3.38909095
H   -0.15365360   2.58803885   2.94837838
H   -1.56720516   2.11735926   2.67962589
O    1.34552906   3.20367624  -1.68824696
H    1.39356480   2.76158322  -2.53587788
H    0.82621846   2.61555222  -1.13992362
O    1.26654160   2.81262232   1.81202844
H    1.91979929   3.27378048   1.28589214
H    0.76614038   2.29949410   1.17757601
O   -3.18357049  -0.84493979  -0.79484164
H   -2.30434644  -0.69770212  -0.44624736
H   -3.45195056   0.00775317  -1.13706775
O   -3.38621085   1.79703527  -1.39658423
H   -3.11578585   1.88142430  -0.48226445
H   -2.57648705   1.60511442  -1.86960178
O   -1.02204131   0.91895460  -2.52149379
H   -0.89389320  -0.00618280  -2.73109027
H   -0.65842481   1.01828868  -1.64163719
O    2.40784000  -1.20288415   2.83796387
H    2.72931394  -0.51328185   2.25715838
H    1.49182192  -0.97511042   2.99690366
O    2.82307876  -0.10199602  -2.57783201
H    2.85671793  -1.04988778  -2.70667864
H    2.22296784   0.01902919  -1.84199804
O    1.21617463   1.64519979  -3.92523969
H    0.38212685   1.42424306  -3.51078311
H    1.83908445   1.01606310  -3.56136851
O   -0.55490525  -2.95227093   0.64960187
H   -0.68791323  -2.01411135   0.51396518
H    0.39410136  -3.06902665   0.60503279
O   -2.13250187  -3.25580207  -1.54104758
H   -2.65703462  -2.46993475  -1.38771849
H   -1.58478659  -3.33491608  -0.76003491
O   -2.02290355  -2.40259418   2.92537261
H   -1.60342650  -2.79932831   2.16191149
H   -1.45916050  -1.66282747   3.15158233
O    3.37169267   3.37177643   0.09621522
H    3.48545664   2.43913563   0.27916533
H    2.74205664   3.39996101  -0.62419851
O   -0.24952507  -0.35150657   3.03481000
H   -0.46853092   0.53662992   3.31673527
H   -0.28820004  -0.31629809   2.07903991
O   -3.92065109  -0.73929832   1.82545977
H   -3.76542262  -0.85619292   0.88819161
H   -3.30543794  -1.33915971   2.24725466
C    0.22272872   0.32562661   0.26162801
O   -0.11243125   1.59421145  -0.13247689
O    1.13865391  -0.19706797  -0.61299774
O   -0.89967175  -0.46043068   0.27217912
