64
Energy:  -1786.03978084
O    0.64293096  -1.64943753  -2.02161673
H    0.36401619  -1.02844514  -1.34870749
H    1.38477779  -2.11047839  -1.63003474
O    1.77767169  -0.43106377   2.04592655
H    1.29831447  -1.13482406   2.48315643
H    1.24171181  -0.21339108   1.28330118
O    2.53276424  -3.17276602  -0.74367318
H    3.05589340  -2.49787659  -0.31113188
H    1.79208711  -3.31653351  -0.15463995
O   -2.70740015   2.10178818   0.55711026
H   -2.20176679   2.30024391   1.34526131
H   -2.17166194   1.46668035   0.08186878
O    1.54419593   0.15576573  -3.84827907
H    1.20487818  -0.55990888  -3.31078008
H    1.05198922   0.92516353  -3.56193762
O   -0.95306642   2.33176626   2.69659334
H   -0.32016132   2.50149731   1.99884385
H   -1.05855828   1.38039942   2.69870429
O    0.65946801   2.99972460   0.59739696
H   -0.02447858   3.40832734   0.06683808
H    0.65733854   2.08176211   0.32615506
O   -1.34211266   3.86951501  -1.04813591
H   -0.91659334   3.29915042  -1.68833071
H   -1.94138877   3.29303473  -0.57403627
O   -2.94580070  -1.74967586  -0.17420579
H   -2.09292745  -1.37759083   0.05027536
H   -3.13550271  -1.40562696  -1.04706050
O    0.24464096   2.19232182  -2.54029049
H    1.04227513   2.58543741  -2.18607063
H    0.00316854   1.52197828  -1.90110159
O   -2.65948286  -1.01479536  -2.77808744
H   -2.10198814  -0.40212510  -2.29843481
H   -2.16360359  -1.83347988  -2.78764054
O    3.87374303  -1.12121983   0.42471743
H    3.72323518  -0.52783309  -0.31112998
H    3.20776207  -0.87922811   1.06825547
O    3.03787976   0.55402640  -1.58539320
H    2.74302050   0.37189675  -2.47764802
H    2.24092123   0.51517544  -1.05664036
O    2.51372059   3.21986438  -1.39578400
H    2.85422542   2.32642735  -1.44115563
H    1.99462525   3.23831231  -0.59177433
O    0.19581401  -3.42694089   0.64207264
H   -0.32071670  -3.83190786  -0.05465516
H    0.00319256  -2.49200758   0.57116051
O   -1.39154077  -3.38549244  -1.69745584
H   -1.95569462  -2.92213248  -1.07837601
H   -0.64333387  -2.80193430  -1.82346450
O    0.22731823  -2.40954133   3.24219894
H   -0.46686676  -1.75253302   3.19043852
H    0.16267001  -2.89239946   2.41824477
O    1.40914464   1.55248038   3.98995830
H    1.62730939   0.89298146   3.33140141
H    0.58743689   1.93557067   3.68292402
O   -1.55300328  -0.34593548   2.73318888
H   -1.13712347  -0.47149687   1.88024681
H   -2.48844149  -0.28983984   2.53814919
O   -4.05381873  -0.03528774   1.63352635
H   -3.77581408  -0.71118618   1.01537866
H   -3.72127094   0.78157312   1.26152885
C   -0.44987333   0.28397469   0.02922005
O   -1.24075988   0.46920037  -1.07402439
O    0.85310564   0.56042487  -0.29159127
O   -0.55112457  -1.01615030   0.45017537
