64
Energy:  -1787.31518277
O    0.65063762  -1.52803160  -2.17202522
H    0.41762040  -0.94610148  -1.44863586
H    0.04018396  -2.26140548  -2.09625636
O    2.03702577  -0.64050501   1.68291832
H    1.57715164  -1.27954573   2.22732128
H    1.38214577  -0.35090512   1.04770502
O    2.73035299  -2.22213354  -0.49060635
H    2.45739071  -1.70106205   0.26451480
H    2.14978366  -1.94179996  -1.19812609
O   -2.70701776   1.82505671   1.27153232
H   -2.22316892   1.82049645   2.09742659
H   -2.15726991   1.32462530   0.66855840
O   -0.28140629   0.18709896  -4.09686145
H    0.11087781  -0.45372225  -3.50382417
H   -0.24505419   1.01351685  -3.61525597
O   -1.26697565   1.42644011   3.58200329
H   -0.33816777   1.59163512   3.41995894
H   -1.39595877   0.51246003   3.32855585
O    0.80697214   2.94848362   0.61018065
H   -0.03354348   3.35078793   0.39128208
H    0.72576109   2.04368949   0.30854478
O   -1.59627399   3.78795952  -0.36466838
H   -1.28389848   3.27741831  -1.11166307
H   -2.07893600   3.15856580   0.17117934
O   -2.72356169  -1.86451383  -0.73127243
H   -1.93673204  -1.46380184  -0.36173103
H   -2.88966568  -1.37095506  -1.53441690
O   -0.21447284   2.30793330  -2.32654351
H    0.64489044   2.71076704  -2.20223914
H   -0.25051341   1.61205985  -1.67027141
O   -2.69497082  -0.08406052  -2.81099209
H   -2.30541540   0.26551627  -2.00957180
H   -1.97739619  -0.08854068  -3.44447329
O    4.56372259  -0.32960270   0.31860439
H    4.20149636  -1.08168600  -0.14979151
H    3.91142158  -0.12778281   0.98942775
O    3.08619045   0.92678074  -1.62604454
H    3.70830368   0.60096088  -0.97562284
H    2.22636941   0.71149463  -1.26467006
O    2.19235434   3.47521742  -1.67021247
H    2.63424162   2.63054217  -1.75676421
H    1.77440550   3.44036139  -0.80978486
O    0.55847882  -3.49831254   0.50556864
H    1.42081173  -3.33083852   0.12534995
H    0.11010174  -2.65360258   0.46488786
O   -0.99641569  -3.71336899  -1.71889608
H   -1.69766682  -3.12908439  -1.43064236
H   -0.44213586  -3.82250358  -0.94617663
O    0.65875612  -2.58307934   3.07662704
H   -0.17591978  -2.11497561   3.09728834
H    0.64289029  -3.06562556   2.25011070
O    1.39139243   1.73641963   2.97208006
H    1.20973990   2.27590302   2.20254002
H    1.63442664   0.88241667   2.61452565
O   -1.64745619  -1.10198928   2.65520946
H   -1.17404313  -0.98680891   1.83128871
H   -2.57149346  -1.06150033   2.40873912
O   -4.03205175  -0.61876236   1.38673609
H   -3.65899871  -1.06580806   0.62699047
H   -3.69679496   0.27583498   1.32731940
C   -0.37517847   0.19258205   0.18578321
O   -1.39998705   0.60156898  -0.62628541
O    0.82350153   0.50825282  -0.39784082
O   -0.45146612  -1.16328822   0.36902131
