64
Energy:  -1793.98379059
O   -0.49527432  -1.68810400  -2.08695855
H   -0.38911418  -1.07974580  -1.35561583
H   -0.90870535  -2.45951410  -1.69935942
O    2.59791960  -0.64939937   1.40373397
H    2.26126652  -1.26148459   2.05814076
H    1.84108579  -0.44506651   0.85447765
O    2.13483509  -2.12505967  -2.71848043
H    2.29039064  -1.20992905  -2.95208324
H    1.21963421  -2.14919365  -2.43909408
O   -1.98291787   1.93344739   1.61730444
H   -1.29679476   2.04252909   2.27576333
H   -1.58259576   1.38574728   0.94202773
O   -0.64410649   0.23867437  -4.03714993
H   -0.70641912  -0.48463734  -3.41331569
H   -0.89883728   1.01212448  -3.53404059
O    0.00623995   1.88640166   3.51078827
H    0.87739257   1.99778827   3.13010731
H   -0.15658902   0.94422034   3.46592261
O    1.20453637   2.96487210   0.06098313
H    0.35205748   3.39856102   0.09873902
H    0.99755562   2.04005828  -0.07359108
O   -1.35241569   3.94016453  -0.12316950
H   -1.34969556   3.46681882  -0.95513602
H   -1.65242605   3.29620195   0.51834263
O   -2.63609757  -1.73126573   0.51391097
H   -1.74634330  -1.37881086   0.49534353
H   -3.14507209  -1.12658960  -0.02603678
O   -0.95978601   2.36940135  -2.34204037
H   -0.05724263   2.66920734  -2.45050081
H   -0.90672438   1.68465237  -1.67530568
O   -3.72190432   0.43981619  -0.71004819
H   -3.92584567   1.00201499   0.03732875
H   -2.76925566   0.48511959  -0.79153427
O    3.37487838  -2.64330725  -0.34570683
H    3.00096674  -2.42339777  -1.19897218
H    3.20786407  -1.87170789   0.19556250
O    1.88808342   0.56661639  -3.08597856
H    1.07328746   0.43596811  -3.57102539
H    1.64097822   0.45694908  -2.16774986
O    1.63275318   3.21894343  -2.60361587
H    1.86033475   2.32117923  -2.84539659
H    1.62709146   3.21560203  -1.64643844
O    0.91087869  -3.38037658   0.53743018
H    1.79403703  -3.27457325   0.18377945
H    0.53421453  -2.50084527   0.50949020
O   -1.48928499  -3.86960691  -0.73467529
H   -1.99811865  -3.20386504  -0.27195733
H   -0.63580874  -3.86351885  -0.30134739
O    1.48488690  -2.54641616   3.08085347
H    0.73514041  -1.97399336   3.24347016
H    1.27863655  -2.98308116   2.25440546
O    2.45809005   1.98492425   2.28814021
H    2.09430490   2.41279686   1.51301619
H    2.57417658   1.07169327   2.02590950
O   -0.57641155  -0.73405461   3.13634925
H   -0.37498617  -0.73121319   2.20058668
H   -1.53080801  -0.67289558   3.17658367
O   -3.22716688  -0.24099899   2.69926494
H   -3.09399485  -0.85484437   1.97698320
H   -2.85642195   0.58358498   2.38487454
C   -0.02396835   0.24025488   0.19718452
O    1.06783837   0.36377990  -0.62114185
O   -0.13686960  -1.05981749   0.61451406
O   -1.15314780   0.59914217  -0.49124404
