37
Energy:  -1649.28817557
O    1.55923552   0.35125980  -2.98764082
H    2.46117154   0.24188526  -2.68634285
H    1.64204556   0.59395821  -3.90985112
O    0.11317428  -1.52881136  -1.58854725
H   -0.61208892  -1.98255498  -2.01789777
H    0.59619384  -1.11676982  -2.30488915
O   -0.15651091  -2.33522440   1.21233252
H    0.40728953  -3.09870732   1.08801542
H   -0.77484050  -2.60173654   1.89267924
O   -2.48761482  -2.39850970  -2.17323838
H   -2.92689020  -2.13445808  -2.98166014
H   -2.77024883  -3.30183253  -2.03055783
O   -0.04330747   1.25539916  -0.83897686
H   -0.76048393   1.88900569  -0.85977434
H    0.42165280   1.39203828  -1.66443040
O   -2.12720292  -0.58696047  -0.06356382
H   -2.55703907  -1.16490228  -0.69400493
H   -2.61658484   0.23387609  -0.11801136
O   -2.22185013   2.37994403   2.62132461
H   -1.95775211   3.24840354   2.92507147
H   -2.95712211   2.14155766   3.18592969
O    2.27373942   0.43721147   3.07036400
H    2.74075854   1.25256999   3.25288922
H    2.51817525  -0.14548437   3.78935533
O   -2.64206557   2.11748139  -0.12789667
H   -2.64598393   2.38892852   0.78999926
H   -3.30131136   2.67214273  -0.54500293
O    3.88360611  -0.18678147  -1.53454179
H    4.39142186  -0.94776176  -1.81608044
H    4.52300255   0.52390306  -1.48625564
O   -0.29461394   0.48880681   1.98295999
H    0.44627705   0.58963467   2.58057704
H   -0.94191986   1.12148358   2.29432312
O    1.96124150  -0.45955011   0.44744218
H    2.34639491  -0.20917326   1.28720413
H    2.68610507  -0.40373178  -0.17520456
Ca  -0.08638149  -0.52138966   0.19511328
