37
Energy:  -1645.18473320
O   -1.46234369   1.66217182  -1.17273124
H   -2.30395151   2.09427318  -1.02707228
H   -1.03261143   2.19348621  -1.84300510
O    1.29920138  -3.12415177  -1.31841846
H    0.85215883  -3.96983624  -1.35309654
H    2.19521825  -3.31478595  -1.59598689
O   -2.16798108  -0.88623233   2.80892241
H   -1.40416800  -1.25471222   3.25281881
H   -2.88988827  -1.01916906   3.42325920
O    0.46101032   2.62872058  -2.87116061
H    0.63634726   3.49167340  -3.24639551
H    0.46231595   2.03558257  -3.62243782
O    0.55606491  -1.34341722   3.43488733
H    0.82854182  -0.48369577   3.75561651
H    0.90895555  -1.96130881   4.07512950
O    0.00820401  -0.75536963  -2.02884409
H    0.05685672  -0.45107895  -2.93508464
H    0.41788481  -1.62033773  -2.04380026
O   -0.63910470   1.06779295   1.61969452
H   -1.30973128   0.65240805   2.16186352
H   -0.01199486   1.42732854   2.24714910
O   -2.03694126  -0.92912926   0.07147217
H   -2.29668825  -1.12148369   0.97245115
H   -2.70405431  -1.35514588  -0.46676742
O    1.07950186   1.41085437   3.81274421
H    0.62831929   1.82915030   4.54602086
H    1.99311303   1.68004256   3.90805525
O    0.80312644  -1.23594414   0.69593684
H    0.84481995  -1.42116727   1.63411907
H    1.12804364  -2.03400212   0.27908660
O    0.24821717   0.39824481  -4.54544495
H   -0.48958671   0.38616255  -5.15514267
H    1.01082365   0.19618875  -5.08751188
O    1.34531686   1.37733224  -0.57046600
H    2.24116462   1.45751805  -0.24296199
H    1.31526572   1.95698924  -1.33160103
Ca  -0.33306622   0.21109041  -0.23312973
