37
Energy:  -1648.40656499
O   -1.71290836   0.52358351   3.09124720
H   -1.59824181   0.63465301   4.03504114
H   -2.66079119   0.54755826   2.96019299
O   -1.26356436  -0.03904824  -0.89868567
H   -2.10503899   0.34419356  -0.65114171
H   -1.48973149  -0.74060565  -1.50933898
O    1.18123400   1.50757279  -1.44281589
H    0.78011146   2.07174426  -2.10390825
H    2.11808506   1.53951182  -1.63652140
O   -0.21197365   1.77849305   1.14460405
H   -0.16677603   2.73396456   1.10906233
H   -0.81247327   1.59333643   1.86664912
O   -0.95626179  -2.33180016  -2.48858904
H   -1.38541066  -3.16117945  -2.27836754
H   -1.02184894  -2.26229792  -3.44100681
O   -3.51221417   1.10945778   0.00951566
H   -4.17933763   1.55525311  -0.51244666
H   -3.92975005   0.96317778   0.85833707
O    1.24859918  -1.39360351  -1.07465950
H    2.12040779  -1.62311350  -1.39638417
H    0.64922047  -1.89649669  -1.62608988
O    3.82771537  -1.75776907  -2.04695762
H    3.95024480  -1.94843830  -2.97693806
H    4.44034687  -2.34149911  -1.59954982
O   -0.05362419  -1.06261916   1.56471470
H   -0.68038654  -0.74009795   2.21231093
H    0.11753124  -1.96735593   1.82622770
O   -4.43474302   0.67759516   2.59768590
H   -5.00664552  -0.07566825   2.74517694
H   -4.90411827   1.41521704   2.98734304
O    3.88784001   0.94118994  -1.31428820
H    4.09176099   0.07986661  -1.67866465
H    4.66591808   1.46858288  -1.49507278
O    2.40090721   0.41361274   0.92609699
H    2.76563760   0.43212269   1.81089130
H    3.13982069   0.62986990   0.35735139
Ca   0.54312098   0.20396094   0.03600359
