37
Energy:  -1653.39172764
O   -0.96031624   1.37750764  -0.44936579
H   -0.86015941   2.16849833  -0.97902056
H   -1.87935029   1.38261527  -0.18181734
O   -1.62359747  -1.35621402   0.04501786
H   -1.67647032  -2.20723455   0.47998954
H   -2.48255864  -0.95920340   0.18924038
O   -3.55503995   0.66259866   0.29793611
H   -3.93376362   0.95235651   1.12790034
H   -4.28471498   0.68900666  -0.32102174
O   -0.56225856   3.51205900  -2.19377538
H   -1.27435522   3.75635720  -2.78493406
H   -0.21771443   4.34642584  -1.87541526
O    0.03218893  -2.03952644   3.64727976
H    0.77265096  -2.36261953   4.16065942
H   -0.66295921  -1.89990404   4.29032447
O   -0.57692920  -3.56401177   1.37909093
H   -0.80843768  -4.48812835   1.47206532
H   -0.41464619  -3.26603828   2.27413723
O    2.78974403   1.46337632   1.80054741
H    2.74231903   2.35744639   2.13910526
H    3.62956778   1.13098120   2.11747231
O    1.11007853  -2.20419535  -0.32402244
H    0.71672459  -2.89479274   0.20943775
H    1.87569505  -2.61660921  -0.72399495
O    0.52242829  -0.16106247   1.65009016
H    0.34284011  -0.73138995   2.39755688
H    1.23613165   0.40422841   1.94556532
O    1.87248601   0.66480604  -0.72748775
H    2.44106557   1.07446568  -0.07546926
H    2.06313917   1.13307229  -1.54026689
O   -0.10962015  -0.57505777  -2.41930343
H    0.29140799   0.09421408  -2.97381536
H   -0.50469538  -1.19199176  -3.03537149
O    1.25963012   1.66746940  -3.25111866
H    0.71304905   2.43707043  -3.09238856
H    1.74744598   1.87956761  -4.04690875
Ca   0.13585799  -0.37741086  -0.37253114
