37
Energy:  -1650.58218789
O   -1.39596017   1.17202781   0.68905061
H   -1.48115106   2.03717027   0.28842251
H   -2.29303768   0.91911316   0.90703678
O   -0.99853938  -1.63658312   0.98272973
H   -0.83599305  -2.55777439   0.77970957
H   -1.93947378  -1.59062143   1.15232280
O   -3.55193894  -0.51918769   1.37978057
H   -3.93725953  -0.47865986   2.25506189
H   -4.29440406  -0.68208769   0.79802376
O   -0.38938716   3.26701941  -0.91627725
H   -0.44907052   2.98111862  -1.82783113
H   -0.50307420   4.21666802  -0.95467795
O    0.63188386   0.16572752   2.62388173
H    1.24157822   0.83779182   2.92856882
H    0.37846322  -0.30589923   3.41734126
O    0.12718013  -2.74237740  -2.73293938
H    0.85544231  -2.89910748  -3.33402316
H   -0.64049516  -3.08321500  -3.19199954
O    1.43353868   1.60878819   0.29987217
H    1.04723714   2.35680986  -0.15561280
H    1.98370970   1.99928044   0.97888579
O    0.53063985  -3.69760326  -0.13024482
H    0.39882027  -3.64594036  -1.07691604
H    0.67936463  -4.62755189   0.04095197
O    2.49818350   2.21050273   2.81438186
H    2.26832595   3.03257240   3.24750866
H    3.40944631   2.05503235   3.06269797
O    1.84820434  -1.36834005   0.45545760
H    2.80503404  -1.34538999   0.46895085
H    1.63233137  -2.28848583   0.30392396
O   -0.02796894  -0.27385560  -1.45076247
H   -0.16231905   0.40122905  -2.11592607
H    0.01491645  -1.09250591  -1.94493285
O   -0.39784114   1.79217028  -3.27691919
H   -1.19220777   1.83478087  -3.80927044
H    0.31009795   2.00591496  -3.88467515
Ca   0.25666752  -0.05265104   0.59271170
