37
Energy:  -1647.03224081
O    0.74122453  -1.61110781  -0.98477152
H    1.50078210  -1.47557493  -1.55128275
H    1.06089910  -2.18396194  -0.28772191
O    1.21636665   1.21231476  -0.86135473
H    1.99949357   0.82389898  -1.25132557
H    1.47312856   2.11009074  -0.65087087
O    3.10090357  -0.50233672  -1.89886085
H    3.70623504  -0.89304989  -1.26866336
H    3.61026229  -0.42670911  -2.70574746
O    4.51723261  -1.78150747   0.13790516
H    5.16171989  -1.27666811   0.63389429
H    4.98985184  -2.56571828  -0.14115812
O   -1.08929447   0.19547429  -2.39680181
H   -1.59154304   0.97075296  -2.64764279
H   -1.04424157  -0.33007483  -3.19555096
O   -2.48163037   2.58789787  -2.41549740
H   -3.41718673   2.59031767  -2.61788386
H   -2.14081800   3.37165955  -2.84653848
O   -1.53179831   1.67599236   0.04266524
H   -1.93414733   1.96938303   0.86014248
H   -1.95262255   2.20475512  -0.63523502
O    2.05627555  -2.31774530   1.35323432
H    2.95506794  -2.17209566   1.05795435
H    2.11794168  -3.06227800   1.95164906
O   -2.03004876  -1.20538523   0.01977663
H   -2.55996397  -1.88996601  -0.38859928
H   -2.36361374  -1.14564726   0.91498478
O   -2.27073167  -0.47163853   2.68165976
H   -2.61534304  -0.94713836   3.43755311
H   -2.57953096   0.42637172   2.80187807
O    0.21826034  -0.24280570   1.49436861
H    0.92726374  -0.84108261   1.73018797
H   -0.41536243  -0.32898329   2.20663784
O   -2.76478706   2.26487212   2.45670283
H   -3.68289845   2.53558499   2.46092940
H   -2.34404628   2.83316524   3.10187875
Ca  -0.41695589   0.00672093  -0.44660419
