37
Energy:  -1646.45437306
O   -0.66692170   1.55725497   0.18102022
H   -1.16929678   1.50010773   0.99378422
H   -0.81846100   2.44883450  -0.13259359
O   -1.45158247  -1.24002182   0.31010960
H   -1.39589687  -2.18401330   0.45847083
H   -1.86477846  -0.89655095   1.10227668
O   -1.81763246   0.54344983   2.44599590
H   -1.05677079   0.57690522   3.02582527
H   -2.56298571   0.72901374   3.01717575
O   -1.05946354   4.04074141  -1.00721484
H   -1.94709990   4.39127874  -1.08108727
H   -0.52404743   4.79384661  -0.75742693
O    2.23464834  -3.10724066   1.46025969
H    3.01153730  -3.45360193   1.02127307
H    2.34152570  -3.36483333   2.37593162
O   -1.27658287   0.16686661  -2.29329608
H   -1.13009690   0.94566857  -2.83017708
H   -2.07581358  -0.22240126  -2.64816600
O    1.46938270   0.87721950  -1.69284902
H    2.42263229   0.96125903  -1.67083926
H    1.18425182   1.54214098  -2.31959591
O   -0.22319690  -3.76747553   0.23676207
H   -0.56821526  -4.66024201   0.22402693
H    0.56500778  -3.82248465   0.77707607
O    0.83646598   0.62139010   3.39573915
H    1.02331246   0.10511563   4.17981881
H    1.17926784   1.49265932   3.59475844
O    1.26228187  -0.55188993   0.90096321
H    1.22968399  -0.10242663   1.74544646
H    1.70389314  -1.38050266   1.08700697
O    0.62104231  -1.94216745  -1.59621957
H    0.96425267  -2.21711909  -2.44641960
H    0.39381595  -2.75976468  -1.15334849
O   -0.15708583   2.52761127  -3.17776700
H   -0.07680894   2.93584783  -4.03981710
H   -0.47468716   3.22879075  -2.60881306
Ca  -0.00081621  -0.18443308  -0.70084702
