37
Energy:  -1646.47329020
O    1.91737066   2.39730654  -4.16539886
H    2.19331826   3.29359564  -4.35710339
H    2.11281021   1.90969311  -4.96556658
O   -0.61733891  -2.05778136   0.68899939
H    0.06496752  -2.71435738   0.54900756
H   -1.22109577  -2.46743553   1.30859036
O    1.48108294  -0.37733501  -0.27841715
H    1.89520087  -1.23950169  -0.31592454
H    2.05057454   0.18546505  -0.80298103
O    0.20192465   0.29954555   2.24306161
H   -0.26036372   0.07930699   3.05177434
H    1.07084161   0.57863683   2.53171925
O   -2.40785427   0.19141669   0.94692200
H   -3.15396698   0.76707081   0.77908280
H   -2.75150182  -0.48181092   1.53420626
O    1.85816027  -3.15482242  -0.04175998
H    1.93556645  -3.71881383  -0.81127530
H    2.48506698  -3.51632037   0.58476939
O   -1.16378957  -0.49652364   4.52095261
H   -1.65567337   0.14366979   5.03518460
H   -0.68811411  -1.01264528   5.17178527
O   -1.11278128  -0.31925304  -1.64471774
H   -1.57197096  -1.00910364  -2.12376141
H   -0.97526699   0.37198074  -2.29241947
O   -0.29249277   1.97564139  -0.12693395
H   -0.14056242   2.78309574   0.36415309
H   -0.30090780   2.25037438  -1.04382153
O    2.87949051   1.36023171  -1.77073688
H    2.64453342   1.71340051  -2.62881544
H    3.80536557   1.57950371  -1.66630020
O   -0.51008042   2.07360970  -2.87334215
H    0.30587994   2.18774823  -3.36059254
H   -1.15474112   2.58584443  -3.36146099
O   -2.64592700  -1.94735389   2.63181876
H   -2.28893641  -1.61748568   3.45642566
H   -3.35885451  -2.52945154   2.89474183
Ca  -0.45665143  -0.04166359   0.30106860
