37
Energy:  -1652.21983515
O   -2.47256969   2.02535310   1.93728810
H   -3.39799082   1.78608071   1.98804539
H   -2.41177614   2.85188322   2.41622854
O   -0.24741496  -3.28594180   1.65565202
H   -0.29789224  -4.24069522   1.70180167
H   -0.39112696  -2.99422569   2.55591889
O   -1.02028864   1.54058881  -0.39397835
H   -1.69441898   1.88047471   0.19445832
H   -0.70767611   2.30966671  -0.87044916
O    0.94279478   3.26291822  -1.43678264
H    0.98539443   4.21793249  -1.48541250
H    1.32281122   2.96337586  -2.26267230
O   -0.50038187  -1.81548538   4.00969890
H    0.19411467  -1.89834714   4.66318213
H   -1.31107570  -1.93323937   4.50481642
O   -1.03573096  -1.90919961  -3.04153446
H   -0.76170817  -2.74682034  -3.41507812
H   -1.74918846  -1.61566956  -3.60814752
O    1.72969990   1.40274696   0.41488469
H    2.41504132   1.58954990   1.05647931
H    1.67411231   2.19778941  -0.11525621
O    1.56768602  -1.51192607   0.62298154
H    1.17101942  -2.29199487   1.01077030
H    2.48410304  -1.75176637   0.48554675
O   -0.43583554   0.12827607   2.02650499
H   -0.42061137  -0.46978657   2.77371390
H   -1.12645771   0.75695910   2.23633952
O   -1.15267178  -1.46862725  -0.28996380
H   -1.21591073  -2.24596128   0.26499970
H   -1.38780386  -1.77840830  -1.16459541
O    0.79535433  -0.14017425  -1.91334118
H    1.27135073   0.44162248  -2.50593872
H    0.31271874  -0.73001667  -2.49246176
O    1.99431942   1.76601736  -3.53948490
H    2.94125670   1.79452231  -3.67633926
H    1.62162141   1.92295471  -4.40706701
Ca   0.25386295  -0.00840173   0.07990612
