37
Energy:  -1647.25486209
O   -0.14641070   1.07924046  -2.65581772
H   -0.85342848   0.95769719  -3.28952502
H    0.59084886   1.39732097  -3.17687911
O    1.14297822  -0.91361989  -0.92471548
H    0.66949974  -1.69243572  -1.21711225
H    1.72699529  -1.23211817  -0.23644608
O   -3.10623486   1.32970898   1.19779296
H   -2.76290737   1.31382420   2.09116061
H   -4.04047612   1.50965071   1.30289334
O    2.30257702   2.12863180  -3.43467537
H    2.96822729   1.58588931  -3.85725336
H    2.36144546   2.97264130  -3.88235195
O    1.94334692  -1.71564748   1.59523660
H    1.54276202  -2.58481402   1.57754174
H    2.74873629  -1.83280160   2.09907657
O    0.33280829   0.53215590   1.41822632
H   -0.18692061   0.80055945   2.17590254
H    0.87337168  -0.18874585   1.74121818
O   -1.42611895   1.26702252   3.44273007
H   -1.64044760   0.63562002   4.12948037
H   -1.31144982   2.09643263   3.90658533
O    1.78515860   1.95710449  -0.71606027
H    2.36249960   2.39161730  -0.08828018
H    2.18648742   2.12659666  -1.56837443
O    0.62511322  -4.14673778   1.14613540
H    0.10463377  -4.53381828   1.85005420
H    1.21126492  -4.84992587   0.86652042
O   -1.09178999   2.48433661  -0.23710758
H   -1.90635100   2.33181725   0.24191231
H   -1.11759833   3.41374591  -0.46462489
O   -1.64174685  -0.33807649  -0.54873138
H   -2.42575902  -0.12457766  -0.04279165
H   -1.67410419  -1.28918735  -0.65155638
O   -0.73278708  -2.93970901  -0.98741869
H   -1.08700370  -3.58155700  -1.60288079
H   -0.37623993  -3.46528923  -0.27126828
Ca   0.06336804   0.81428409  -0.61357953
