37
Energy:  -1645.81605468
O   -1.33284184   0.95700888  -1.26027344
H   -1.98852605   1.13127155  -1.93550865
H   -0.73395962   1.70210359  -1.30932252
O    0.51860243   0.50275302   0.98443999
H    0.64017156   0.78853189   1.88985881
H    1.36222921   0.67057452   0.56448565
O    0.67824652   1.06057467   3.70736949
H    1.47197417   0.82410296   4.18727510
H    0.44864029   1.92953927   4.03663133
O    2.70530544   0.33735224  -0.74882472
H    2.87544314   1.11413372  -1.28164320
H    3.57446645   0.00105373  -0.53043447
O   -1.34416032  -0.86712978   3.66458376
H   -1.71889836  -1.17415161   4.49013863
H   -0.67577858  -0.23349771   3.92536738
O   -0.88362069  -2.92855674  -3.10576959
H   -0.73946469  -3.87418975  -3.14082816
H   -1.04305525  -2.67622091  -4.01524147
O    3.06103959   2.65591296  -2.22813639
H    3.22429639   2.62983275  -3.17095073
H    3.68685900   3.29845852  -1.89389529
O   -2.39232118   0.07470009   1.31077346
H   -2.29849460  -0.15082237   2.23628307
H   -3.12408017   0.69130009   1.28700260
O   -0.57937925  -2.16018742   1.35138669
H   -0.23561462  -3.05325884   1.32945133
H   -0.75643710  -1.99386204   2.27724750
O   -2.28711726  -1.78640353  -1.01100868
H   -3.17534841  -2.10823620  -0.85705738
H   -1.99160470  -2.26013558  -1.78849315
O    0.44036617   2.96499865  -1.35328797
H    0.21344497   3.89456234  -1.32779368
H    1.32827419   2.94441920  -1.71025811
O    0.52900086  -1.30720032  -1.25752452
H    0.44241856  -1.86312239  -2.03191848
H    1.40446256  -0.92729599  -1.33149325
Ca  -0.92524982  -0.60683692   0.02033834
