37
Energy:  -1645.16932340
O    1.84041807   0.90036803   0.80902923
H    2.27414323   1.67466453   0.45044971
H    2.50895731   0.47953326   1.34957084
O   -1.93125002  -0.36004241  -0.33342427
H   -2.76016544  -0.35513073   0.14522691
H   -2.12287426  -0.83803415  -1.14029222
O    0.48038668   0.32408493  -1.73025217
H    0.68290992   1.12520383  -2.21339261
H    0.05000112  -0.24087455  -2.37198491
O   -0.71884427   0.15053776   2.20001414
H   -0.36564373  -0.47840841   2.82922630
H   -1.65620243   0.18094666   2.39149998
O   -0.62641398   2.25476301   0.12551660
H   -0.29520234   2.75103223  -0.62298027
H   -1.09633163   2.90080048   0.65281617
O    0.55686729  -2.14194859   3.20430568
H    1.33021196  -2.12957301   3.76823539
H    0.00871145  -2.83936848   3.56397570
O   -3.49930998   0.05300317   2.02596274
H   -3.98393163  -0.66846017   2.42704174
H   -4.06937298   0.81432604   2.13388639
O    0.82795198   3.06782618  -2.04729941
H    1.67536876   3.28572243  -1.65917845
H    0.72109512   3.69812582  -2.75971490
O   -1.18042287  -1.63764694  -2.73019339
H   -1.60761422  -1.81244093  -3.56875553
H   -0.70867106  -2.44564631  -2.52815601
O    3.06612158   3.09542131  -0.35801010
H    3.90561267   2.94615806  -0.79298945
H    3.20110680   3.89035431   0.15783132
O    0.57147745  -1.69549213   0.42837609
H    0.60999971  -2.40505660  -0.21292426
H    0.67216721  -2.13118640   1.27469986
O    0.46228797  -3.60581056  -1.58601486
H    1.25625379  -3.80998465  -2.08014345
H    0.05235693  -4.45630383  -1.42837734
Ca  -0.05622948   0.26773044   0.25046914
