37
Energy:  -1645.03564001
O   -1.90587806   2.05819585  -0.53202382
H   -2.85179231   2.20466186  -0.53710318
H   -1.55558357   2.73188451  -1.11483529
O   -1.81163204  -0.72319912   0.38737709
H   -2.70627788  -0.86823207   0.07947110
H   -1.51517339  -1.58559590   0.67826524
O   -1.11913591   1.43708683   2.26258078
H   -0.78442717   0.95582043   3.01927395
H   -1.64789977   2.14007650   2.64000117
O   -0.20934922   3.64712826  -1.97641204
H    0.05069995   3.16076597  -2.75875340
H   -0.25349781   4.55893809  -2.26431061
O    0.22628535  -0.21086041   4.02724570
H    0.83050558   0.15398780   4.67380238
H   -0.21597501  -0.92403753   4.48769766
O   -0.85388711  -3.10023944   1.18923115
H   -0.29977680  -3.64546231   0.63072812
H   -1.31726532  -3.72326236   1.74901229
O    0.93082341  -0.31892606   1.29876177
H    1.43392485  -0.99867612   0.85036392
H    0.96676625  -0.56424968   2.22329207
O    1.89083038  -1.90342349  -0.77448155
H    2.80253641  -1.97546094  -1.05703167
H    1.57558438  -2.80684411  -0.74834745
O    0.81796332   2.46941241   0.30820340
H    1.57033011   2.79198133   0.80431362
H    0.72290113   3.09011190  -0.41424187
O    0.87850776  -4.46830823  -0.50092759
H    1.44621265  -5.11361986  -0.07960125
H    0.50224981  -4.93184084  -1.24912498
O    0.25220031   0.23404581  -1.45057659
H    0.33197926   0.63365917  -2.31670380
H    0.81707474  -0.53773197  -1.48940677
O    0.47247620   1.67041126  -3.82167363
H    1.32669828   1.76054872  -4.24406175
H   -0.13622579   1.51068993  -4.54292451
Ca  -0.48226141   0.85554359   0.37793637
