37
Energy:  -1645.24876822
O   -2.80747259  -1.99384434  -0.92408042
H   -2.78477825  -1.41182641  -1.68366711
H   -3.62963630  -2.47547181  -1.01525965
O   -2.13690528   2.23445729  -0.62504002
H   -1.38998955   2.82937356  -0.55853168
H   -2.90340057   2.80039028  -0.53318862
O   -0.36259689  -2.65887465   0.12587417
H   -0.06461865  -3.56805693   0.15465618
H   -1.22013016  -2.70066151  -0.29735437
O    0.43094345  -1.22780395   2.57631728
H    0.02337689  -1.89559855   3.12783493
H    0.79406134  -0.59429148   3.19521889
O    0.30293935   3.53068711  -0.17026675
H    0.22229492   4.29179073   0.40458072
H    0.75722746   3.86206299  -0.94489194
O   -1.58095560  -0.11107590   0.66767025
H   -1.85923729   0.76316633   0.39473861
H   -2.27657056  -0.69163537   0.35895942
O    1.55383713   0.99403664   3.78342934
H    1.02904238   1.47949841   4.41994265
H    2.44008565   1.00492958   4.14492172
O    2.90074942  -1.17651296  -2.35259444
H    3.58257142  -0.57236968  -2.64646773
H    2.99303291  -1.93886051  -2.92403282
O    0.38896472  -0.30462407  -1.44803160
H   -0.36785499  -0.12824953  -2.00691243
H    1.10388514  -0.47902071  -2.06016431
O   -2.04387012   0.18666807  -2.58543709
H   -2.25299957   0.99892034  -2.12419641
H   -2.34599975   0.33491280  -3.48152472
O    1.01357174   1.13479370   1.04582166
H    0.86917806   1.98004806   0.62046605
H    1.31023119   1.35772005   1.92816449
O    2.30884666  -1.45623926   0.33585375
H    2.70528282  -1.43655667  -0.53517025
H    2.99005598  -1.82001617   0.90140841
Ca   0.36579520  -0.76549602   0.55995836
