37
Energy:  -1645.44339498
O   -1.42165628  -0.19356295   0.20450481
H   -1.86178081   0.64127468   0.36440596
H   -1.65439727  -0.41890709  -0.69620797
O   -1.55041752   1.93508573  -3.65189964
H   -1.13101280   1.98671506  -4.51077445
H   -2.38139546   2.39713237  -3.76244561
O   -1.69080413  -0.60693838  -2.51786944
H   -2.41130695  -1.10504924  -2.90386570
H   -1.71511806   0.23777481  -2.96742512
O   -1.73311284   2.50344575   0.71833497
H   -2.39020363   3.16528701   0.93381044
H   -1.28540396   2.85186002  -0.05263591
O    1.24934322   0.40862633  -0.61037837
H    1.41671445  -0.08578201  -1.41273684
H    0.97058911   1.27237465  -0.91446195
O   -0.00277418   2.72071346  -1.47125393
H    0.46901985   3.52923913  -1.67107508
H   -0.50586238   2.53425175  -2.26394942
O   -0.38768413  -1.54099122   2.64510526
H    0.16367203  -1.88168261   3.34949692
H   -1.28219146  -1.73439852   2.92560853
O    0.29540332   1.25919566   2.03213174
H   -0.38853581   1.87427389   1.76729614
H    0.77172326   1.71435422   2.72652489
O    0.95202726  -1.52856084  -2.55814411
H    1.36840133  -1.88995121  -3.34061551
H    0.05942365  -1.32169602  -2.83508739
O    1.79245837  -2.23717924   4.22203546
H    1.93126511  -1.83991957   5.08177338
H    2.06521724  -3.14811469   4.33172167
O    2.30383455  -0.85058019   1.86826154
H    3.20021667  -0.65951885   1.59217008
H    2.40280171  -1.32155791   2.69567761
O    0.57072316  -2.34021838   0.00796619
H    0.74258421  -2.31616336  -0.93337168
H    0.47532126  -3.27080367   0.21079946
Ca   0.43639027  -0.54466426   1.02788611
