37
Energy:  -1649.35329156
O   -0.28440039   1.43722299  -1.19179294
H    0.06964528   2.31881292  -1.07481990
H   -0.43395254   1.36175847  -2.13422125
O   -3.75535769  -1.30416985   0.48024442
H   -4.55905548  -1.06813281   0.01700772
H   -4.02181249  -1.99570207   1.08606360
O   -1.89572460   0.61827211   1.19962312
H   -2.23805287   1.37789393   1.67081086
H   -2.65548787   0.04887280   1.07806636
O    1.00043420   3.74106091  -0.28398311
H    1.83999971   4.01785550  -0.65106124
H    0.52962281   4.55797787  -0.11901292
O    0.30492888  -1.23259957   1.89893049
H    0.47239156  -0.89102670   2.77729037
H    0.91453190  -1.96468974   1.80587140
O    0.39645533  -1.43827329  -3.01714204
H    0.12353962  -0.68156513  -3.53593065
H    0.64453871  -2.09705124  -3.66575448
O    0.88356624   1.50275902   1.40313437
H    1.11825259   1.47401858   2.33067313
H    1.12679807   2.38458304   1.12125404
O    2.41389892  -2.83937563   1.01900603
H    3.27276690  -2.83390213   1.44155506
H    2.27842831  -3.75157205   0.76253525
O    1.05686951   0.44702169   4.01336911
H    1.90831603   0.32861584   4.43438066
H    0.46548531   0.67965973   4.72917363
O    1.57388357  -0.72212321  -0.60108970
H    2.10925648  -1.41090431  -0.20715025
H    1.49690480  -0.97466807  -1.52115883
O   -1.20159582  -1.34880713  -0.71698381
H   -2.10618075  -1.63254969  -0.58489250
H   -0.96583131  -1.69207098  -1.57885205
O   -0.51327675   1.03179039  -3.93162461
H    0.08783701   1.50203148  -4.50935068
H   -1.35704336   1.06840830  -4.38212310
Ca  -0.10093974   0.04412510   0.32666587
