37
Energy:  -1648.78315459
O    0.18823556  -2.08507813   0.78688108
H   -0.21717094  -2.86164522   1.17265430
H    0.52962076  -2.38584471  -0.05527536
O    0.33574540   0.06291273   2.87455559
H    1.25518243   0.31899882   2.94726949
H    0.05450208  -0.08091652   3.77813027
O    1.27816428   0.55410189   0.21695627
H    1.59294400   0.59274272  -0.68617853
H    2.04912844   0.75234954   0.74850493
O   -1.25600225   1.77540685   1.05122047
H   -1.41229627   2.45944341   1.70229498
H   -1.43650762   2.19770171   0.21138911
O    0.59264220  -1.97417487  -2.01224454
H    1.16583124  -1.28878693  -2.35565327
H    0.64618989  -2.67803568  -2.65873077
O   -1.28691451  -0.30401968  -0.90067368
H   -1.58134794   0.44376538  -1.42063358
H   -0.89770359  -0.90179151  -1.53896480
O   -2.21332516  -0.92295393   1.86263917
H   -3.10537298  -0.61037878   2.01356735
H   -2.25477450  -1.86242068   2.04128977
O   -1.65950731   2.31827435  -1.65363487
H   -2.43303256   2.78590003  -1.96862177
H   -0.97944123   2.51881303  -2.29669492
O    2.94964553   0.84898046   2.43893702
H    3.67319782   0.24451147   2.60422823
H    3.27416883   1.69886518   2.73661543
O    1.89640120   0.48830188  -2.44693988
H    2.77100692   0.48818688  -2.83590861
H    1.43469882   1.19721215  -2.89472219
O   -1.73873918  -3.64017912   2.10936624
H   -1.56962072  -4.07416025   2.94560256
H   -2.28305941  -4.25959477   1.62328849
O    0.39936787   2.58739464  -3.51662674
H    0.84570119   3.43413547  -3.52358288
H    0.11656102   2.45773685  -4.42185654
Ca  -0.50003348  -0.15434904   0.99152746
