37
Energy:  -1646.19607549
O    0.14236206   1.28310269  -1.48654356
H   -0.50337250   1.95186079  -1.25846172
H    0.86546697   1.77185913  -1.87956808
O   -1.57370242   2.72861515   0.12933523
H   -1.81456665   3.65487006   0.14570977
H   -2.36982816   2.26887269   0.39589200
O   -1.76320800   0.37774445   3.47766534
H   -1.95908425  -0.38765369   4.01806337
H   -1.78148793   1.11412282   4.08893010
O    0.85008215  -1.97483364   0.94689208
H    0.41405838  -2.78282694   1.21756151
H    1.73101685  -2.04255943   1.31512994
O    0.67650305  -1.58172245  -1.97988641
H   -0.09768465  -1.89592612  -2.44694241
H    1.41542952  -1.93628759  -2.47435893
O   -0.00527205   0.79989679   1.33481608
H   -0.37956740   1.65546300   1.12471780
H   -0.40271011   0.56332287   2.17285403
O    2.43026788   0.06895720  -0.28786337
H    2.86032134   0.77433777  -0.77131360
H    3.11848097  -0.29429670   0.26948858
O    3.52029378  -1.68566961   1.63456723
H    3.79807547  -1.37601137   2.49664666
H    4.16597095  -2.35202579   1.39940285
O   -3.26562283   0.69787555   1.10907573
H   -2.96693540   0.60483137   2.01370850
H   -4.22061418   0.71376180   1.17209167
O   -1.58029465  -0.86359812  -0.39200323
H   -2.00660045  -1.32282418  -1.11560991
H   -2.29609120  -0.42795307   0.07068517
O    2.71487618   2.23943318  -2.04920827
H    3.10747511   2.15942010  -2.91851595
H    2.99454864   3.10030141  -1.73788680
O   -1.88333220  -2.23176667  -2.81468012
H   -2.26941409  -1.81595317  -3.58557035
H   -2.18265888  -3.13999132  -2.85667275
Ca   0.42100822  -0.38265228  -0.30662532
