37
Energy:  -1649.28046151
O    3.61712162   0.25793882  -1.40957673
H    4.07776048   1.04491116  -1.70064067
H    4.24587269  -0.45134980  -1.54304427
O    1.84900180   0.40520087   0.79541195
H    2.08913314   0.29159430   1.71501095
H    2.68505686   0.42495474   0.32973657
O   -0.29232139   2.02573786  -0.37942439
H   -0.11938933   2.76766741   0.20011584
H   -0.63308654   2.42196495  -1.18136893
O    1.36803017  -0.36291244   3.44409788
H    1.43974622  -1.31737627   3.45344910
H    1.68420897  -0.09004209   4.30537867
O   -1.29009478   3.07500010  -2.74783828
H   -2.13110682   3.53185116  -2.73308320
H   -0.72363232   3.63220853  -3.28157125
O   -0.86145377   0.21191720   1.85167041
H   -1.78681698   0.10606079   2.07241734
H   -0.40292596   0.11387825   2.68615976
O   -3.61712313  -0.25793511   1.40958852
H   -4.24587206   0.45135450   1.54306095
H   -4.07776324  -1.04490761   1.70065005
O   -1.84900753  -0.40519328  -0.79540627
H   -2.08913770  -0.29159067  -1.71500607
H   -2.68506327  -0.42494730  -0.32973211
O    0.29231493  -2.02572854   0.37942633
H    0.63309257  -2.42195901   1.18136390
H    0.11936766  -2.76765609  -0.20011193
O    1.29011760  -3.07500883   2.74781936
H    2.13113380  -3.53185195   2.73305571
H    0.72366217  -3.63222905   3.28154749
O   -1.36804033   0.36289817  -3.44409715
H   -1.68422056   0.09002565  -4.30537672
H   -1.43974551   1.31736276  -3.45345489
O    0.86144919  -0.21190670  -1.85166489
H    1.78681334  -0.10605832  -2.07241171
H    0.40292383  -0.11388339  -2.68615741
Ca  -0.00000309   0.00000544   0.00000271
