37
Energy:  -1645.76506261
O   -1.28321901   1.23736899   0.54187656
H   -1.62550695   1.13461537   1.42985883
H   -1.56771918   2.11137308   0.27465315
O   -0.53641233   0.19904032  -3.93384224
H   -1.31081472   0.51885581  -4.39671462
H    0.03167239  -0.14285902  -4.62421637
O    2.01349858  -0.85420607  -0.80605936
H    1.99669073  -1.78729133  -0.59321848
H    2.85171699  -0.72429333  -1.24961818
O    0.45733549   1.55736252  -1.71106818
H    0.27885112   1.30401871  -2.61671275
H    0.04223149   2.41454853  -1.61539868
O    1.30254799  -3.35211067   0.11119972
H    1.83101512  -4.11128562   0.35738611
H    0.55259343  -3.72249925  -0.35421656
O    0.10715784  -1.13784608   1.37377301
H   -0.39219183  -0.99829491   2.17838921
H    0.40556929  -2.04554580   1.43090145
O    1.07312447   1.74887995   3.72110523
H    1.65256906   1.31008524   4.34394952
H    0.98845690   2.64039666   4.05913070
O    1.56572037   1.38656510   1.01587107
H    2.37330892   1.85934108   0.81458652
H    1.43328317   1.52611682   1.95353709
O   -1.19668845   3.65928997  -0.92315352
H   -0.85346938   4.48947149  -0.59265216
H   -1.95615960   3.90658150  -1.45067824
O   -1.10728308  -3.76205615  -1.25445953
H   -1.05473671  -4.27643424  -2.05999408
H   -1.83757831  -4.14779250  -0.77061223
O   -0.78689289  -1.00513840  -1.42422758
H   -0.89698049  -0.77777440  -2.34749253
H   -1.01482746  -1.93359750  -1.37688434
O   -1.33869701   0.39746106   3.19533907
H   -0.64033770   0.88580540   3.63128165
H   -2.00707626   0.28022658   3.87043692
Ca   0.34032875   0.19275378  -0.17023940
