37
Energy:  -1646.48380526
O   -0.81749854   4.03488381   1.51850748
H   -1.37448722   4.49705237   2.14492243
H   -0.28612012   4.72240256   1.11702674
O   -3.19545908  -2.52935332   0.32027315
H   -4.13563027  -2.51159547   0.14140270
H   -3.00274176  -3.44952112   0.50022618
O    0.21950342   1.46004295   2.00609915
H    0.78950969   1.17063001   2.71853500
H    0.11732683   2.40117679   2.14772855
O    0.82260643  -1.13748203   1.00416012
H    1.54203343  -1.38321953   0.42255053
H    1.20484006  -1.15998726   1.88144161
O    1.74344550  -0.35637011   3.53498304
H    2.67786621  -0.20926168   3.68143748
H    1.43292241  -0.75489089   4.34799499
O   -0.04205091  -0.12568972  -3.33703167
H    0.72365095  -0.65719646  -3.55482306
H   -0.37832741   0.16887872  -4.18342366
O   -1.96877571  -0.49722380   1.74582957
H   -2.48106160  -1.24406919   1.43596349
H   -2.34370199  -0.28735074   2.60117478
O   -1.78166572   1.91270917   0.01956731
H   -1.59371851   2.76119656   0.42078650
H   -2.56172822   2.06676204  -0.51335112
O   -1.37778445  -0.83266443  -1.01789228
H   -1.12406352  -0.82545209  -1.94082539
H   -2.01259550  -1.54576460  -0.94908145
O    0.83158347   0.96602437  -0.91770652
H    0.58531949   0.95256542  -1.84258746
H    1.71342057   0.59422483  -0.89872562
O    2.31165405  -1.59661608  -3.60134642
H    2.25016349  -2.51799003  -3.85337976
H    2.94717203  -1.22274542  -4.21173111
O    2.81547093  -0.97869641  -0.92648593
H    2.72044079  -1.27970088  -1.83014374
H    3.75173286  -1.05861600  -0.74411733
Ca  -0.54544708   0.31404519   0.47544550
