37
Energy:  -1647.77256067
O   -0.75030516   1.09919180  -2.18720126
H   -0.46821451   1.91010567  -2.61037428
H   -1.12678929   0.57715200  -2.89569684
O   -1.76845872  -0.94494218  -3.76640411
H   -2.68946730  -0.99558010  -4.02215955
H   -1.28740011  -1.22491120  -4.54514143
O   -0.20997508   2.09142875   0.52058680
H    0.37837827   2.18166051   1.27020698
H   -0.91777939   2.71176939   0.69500694
O   -2.79446143   3.11752052   0.82351714
H   -3.16628398   3.78372482   0.24545861
H   -3.13901866   3.33249452   1.69029182
O    0.47412723  -3.30010960   1.99285384
H    1.08164848  -3.48795351   2.70830086
H   -0.19181507  -3.98463073   2.05753398
O   -2.51792131   0.45693743   0.07932507
H   -2.85353227   1.31803078   0.32855462
H   -3.25895041  -0.13545954   0.20650037
O    1.51802571   1.36915954   2.52278444
H    2.36466994   1.40548832   2.07769387
H    1.69921687   1.68199823   3.40908776
O    1.51751512  -2.81449293  -0.56498580
H    2.07154917  -3.47739605  -0.97709932
H    1.33110847  -3.16518790   0.30593179
O    3.58113382   1.36923981   0.62262357
H    4.38398262   0.88554933   0.81681210
H    3.88389335   2.22668549   0.32369980
O    1.53000221  -0.01050044  -0.64959885
H    1.84826811  -0.90959844  -0.73060155
H    2.28970733   0.48659543  -0.34632392
O   -0.17119856  -0.63647544   1.52596588
H    0.35563676  -0.13976505   2.15202912
H   -0.05597337  -1.55016140   1.78698880
O   -0.84930084  -1.58706383  -1.20378174
H   -0.18498903  -2.27373918  -1.14548405
H   -1.22591994  -1.69107050  -2.07760810
Ca  -0.49677187   0.23653393  -0.32040048
