37
Energy:  -1647.06179535
O   -3.22749040   1.57141916   0.98066263
H   -4.09022072   1.20648834   0.78380290
H   -3.41136713   2.42999979   1.36179317
O   -0.72733503  -1.72198068  -0.48267188
H   -0.43554474  -2.05984865  -1.32939232
H   -1.43543187  -2.31033346  -0.22061899
O   -0.58296715  -0.21085187   4.61197983
H   -0.92508862   0.45866415   5.20437585
H   -0.71276913  -1.03517820   5.08088217
O    0.28524737   1.60131116  -3.14551751
H    0.48145151   2.42200985  -3.59739076
H    0.15029710   0.96635222  -3.84897144
O    1.46279613  -1.35948384   1.40578804
H    1.85784529  -2.22572106   1.30678762
H    1.82785469  -1.02125876   2.22344805
O    0.62743359  -2.27027963  -2.81368121
H    0.93812696  -3.11986566  -3.12657903
H    0.39888551  -1.79030935  -3.60968758
O    1.27212302   1.50229919   1.18540486
H    1.59395296   2.36534060   0.92498815
H    1.63329056   1.36573529   2.06127024
O    1.47312345  -0.08952848  -1.30995502
H    1.58709642  -0.88641572  -1.82784762
H    1.36568401   0.60542027  -1.95936617
O    1.96389229   0.26327317   3.55587183
H    1.21709635   0.14458363   4.14276234
H    2.71223469   0.38218096   4.14074483
O   -1.12392001  -0.01240492   1.89271762
H   -1.03144150  -0.12840166   2.83835197
H   -1.94546197   0.46775231   1.78903685
O   -0.98746398   1.21784271  -0.69234213
H   -0.86283350   1.53848167  -1.58558888
H   -1.84308053   1.55903843  -0.43207754
O    0.05789016  -0.53888904  -4.93159984
H   -0.76887484  -0.65358636  -5.40014653
H    0.72473566  -0.53767688  -5.61829297
Ca   0.23783601  -0.07937218   0.33942772
