37
Energy:  -1645.26793522
O    1.35855173   0.74487146  -3.48887695
H    1.50969818   1.58581026  -3.92039582
H    1.74910236   0.09927609  -4.07786649
O   -0.76729137   1.96721754   0.29635831
H   -0.20483067   2.34645597   0.97167159
H   -1.33849721   2.68683407   0.02782937
O    0.00562517  -2.01931479  -0.51754829
H   -0.46088040  -2.75037233  -0.92271404
H    0.83585623  -2.39630076  -0.22629272
O   -2.27882850  -1.27080660   3.02874907
H   -2.35393470  -2.18138836   3.31411158
H   -2.74508970  -0.77025268   3.69828482
O   -1.03520893   0.24423852  -2.08945231
H   -1.91802309   0.14659808  -2.44629591
H   -0.48641539   0.42447851  -2.85271572
O   -3.81128392  -0.27638773  -2.11955280
H   -4.18545290  -1.03408778  -2.56913044
H   -4.45233607   0.42198344  -2.25207336
O    0.05894665  -0.28695593   1.84173641
H    0.50343941   0.40587773   2.33024389
H   -0.55685756  -0.66575520   2.46905462
O    1.15582959   2.22174504   2.27489315
H    2.04405574   2.18526375   1.91999138
H    1.22260233   2.80739507   3.02907303
O    3.47609032   1.68101412   0.82707568
H    4.14463444   1.14861495   1.25815773
H    3.95475761   2.43539316   0.48353275
O   -2.37257003  -0.52775830   0.30754678
H   -3.13199139  -0.53951007  -0.27501046
H   -2.71262106  -0.82590140   1.15117457
O    2.35645390  -3.02161752   0.33058364
H    2.50152663  -3.47406420   1.16153356
H    3.04223563  -3.35581061  -0.24756015
O    1.49570149   0.48178310  -0.70722429
H    1.70965254   0.59535341  -1.63326888
H    2.25490300   0.83156927  -0.24086118
Ca  -0.41969820  -0.03570075  -0.14233552
