37
Energy:  -1649.87373808
O   -0.93319205   1.91818268  -0.39166993
H   -0.72667749   2.60943139   0.23742371
H   -0.83719091   2.33603995  -1.24748003
O   -1.88039177  -0.88165574  -0.91267604
H   -1.70067160  -1.44131962  -1.66812879
H   -2.83443587  -0.80714772  -0.89076158
O   -1.24215151  -0.05209278   1.79454176
H   -1.43577940   0.67871494   2.38161941
H   -1.58114771  -0.82246880   2.25043014
O    0.14848873   3.25567727   1.75075484
H   -0.44373910   3.08070445   2.48211150
H    0.45064635   4.15227220   1.89584156
O    3.02563366  -1.29579407   1.63526966
H    3.19244537  -1.56154825   2.53958178
H    3.86775907  -1.40551677   1.19366172
O   -0.56485827  -2.29117844  -2.86685399
H   -0.78490327  -2.56176529  -3.75825446
H   -0.24507500  -3.08913936  -2.44586837
O    1.38394941   0.86499696   0.91544244
H    2.15370673   0.42282581   1.27347903
H    1.38538761   1.72587131   1.33392198
O    0.38249800  -4.20479083  -1.07818817
H   -0.22069549  -4.89932260  -0.81358453
H    1.18104694  -4.66560107  -1.33549222
O   -1.70980585   2.09620043   3.47803117
H   -2.57297494   2.50962686   3.49382866
H   -1.46123152   2.02433165   4.39959372
O    0.61842809  -1.83149093   0.34484697
H    1.45377082  -1.86871007   0.81073225
H    0.53301293  -2.69281193  -0.06388550
O    0.63140883   0.05136040  -1.89264255
H    0.62530580   0.82622634  -2.45458327
H    0.52205540  -0.68357912  -2.49608067
O   -0.04484163   2.54203574  -2.96353770
H   -0.64459292   2.63938631  -3.70316809
H    0.62176277   3.21423676  -3.10501640
Ca  -0.23916038   0.01600574  -0.02402714
