37
Energy:  -1651.51935701
O    0.27084110   3.01193857   1.65489409
H   -0.63100638   3.30158068   1.51701588
H    0.65856348   3.68965745   2.20860911
O   -0.78279962  -1.97870319  -0.09273337
H   -0.40307218  -2.60595647   0.52256512
H   -1.05600348  -2.51087819  -0.83998251
O    0.15081864   0.25571762   1.70424739
H    0.27857202  -0.26089693   2.49987314
H    0.22169695   1.16506103   1.99459663
O   -2.39977957   3.17748099   0.84019685
H   -3.04643306   3.15778721   1.54566355
H   -2.64840097   3.93308984   0.30777361
O    0.62222188  -1.45243879   3.83982532
H    1.35719696  -1.28650059   4.43017098
H   -0.09223834  -1.72335473   4.41635198
O   -1.78361536   0.76997005  -0.39083718
H   -2.61188872   0.41293303  -0.71133625
H   -2.02171046   1.60602705   0.00985131
O    0.98954673   1.68168910  -0.69911517
H    1.01388282   2.42727535  -0.09933125
H    1.20280162   2.05470549  -1.55445895
O    1.12890391  -3.04479287   1.61441115
H    1.02191509  -2.67724104   2.49173144
H    1.43711824  -3.93848620   1.76457107
O    1.93249814  -1.06660777  -0.15091111
H    1.96350027  -1.83106078   0.42431261
H    2.84151575  -0.93017737  -0.41794216
O   -1.19354542  -2.96485316  -2.67198385
H   -0.69025259  -3.71414496  -2.99055876
H   -2.06676307  -3.08631133  -3.04477158
O    0.04326174  -0.43754451  -2.35984177
H    0.36751489   0.15608763  -3.03711027
H   -0.28232267  -1.19732740  -2.84249755
O    1.22281829   1.84974237  -3.50733335
H    2.08203042   1.82171768  -3.92828583
H    0.71254519   2.45663324  -4.04355782
Ca   0.09048497  -0.12800531  -0.32079108
