37
Energy:  -1652.77740938
O    1.29146902  -0.68349756   4.14240564
H    0.93162852  -1.33837871   4.74063415
H    1.73289960  -0.05421123   4.71281744
O   -2.76555303  -0.64514607  -2.57958700
H   -2.85410133   0.28828802  -2.77217945
H   -3.39859425  -1.07062009  -3.15791434
O   -0.06333993  -0.97010800  -1.95725609
H    0.69047792  -0.90351208  -2.54339214
H   -0.81754932  -1.03673664  -2.54288453
O   -2.12498236  -0.96660089   0.07694165
H   -2.59606002  -0.95574140  -0.75624486
H   -2.77888651  -1.24358658   0.71875169
O    0.41491130  -2.28565922   0.67004766
H    0.13934973  -3.19360984   0.54385992
H    1.24533655  -2.35023784   1.14169938
O   -0.72921882   1.49918911  -0.55526993
H   -1.28011127   1.80026775  -1.27783550
H   -0.72198116   2.23076554   0.06196212
O   -0.63629815   3.00769352   1.78153298
H   -1.41687485   3.40216353   2.17053847
H    0.05331952   3.65785673   1.91549984
O    2.74604279  -1.62029165   1.95202094
H    2.45363909  -1.35489806   2.82397172
H    3.58408712  -2.05756775   2.10269662
O    2.54975346  -0.36149426  -2.80483149
H    2.78387253   0.37181334  -3.37376037
H    3.13880981  -1.06807310  -3.06938925
O   -2.47468057   2.13984285  -2.62737154
H   -2.14721374   2.53695402  -3.43440317
H   -3.26898547   2.63306782  -2.42233324
O   -0.15148084   0.27787461   1.97186838
H   -0.33343093   1.19919392   2.15706221
H    0.25595971  -0.05197982   2.77275545
O    1.86921812   0.05677069  -0.12431794
H    2.34152882   0.04957334  -0.95684580
H    2.49818343  -0.28457591   0.51138403
Ca  -0.13609368  -0.39894989   0.01889829
