37
Energy:  -1649.45328307
O   -0.35629197   2.48757102  -0.58625657
H   -0.77465527   3.14122684  -1.14655832
H    0.41489193   2.93178715  -0.23386577
O    0.61211865   0.88731347   1.61355487
H    0.33369362   0.72783682   2.51537445
H    1.26010703   1.58841147   1.68286939
O    3.53573310   1.56601043  -1.21723221
H    3.80003924   2.00828835  -2.02393187
H    4.34495352   1.18514508  -0.87615193
O   -1.24435925  -2.66899061   2.89318413
H   -2.06339372  -3.15255751   3.00078262
H   -0.59133516  -3.19805906   3.35130852
O    2.03895258   3.07059304   0.60500666
H    2.41708523   3.86629118   0.97932205
H    2.72465163   2.72483952   0.03360211
O    1.18957407   0.07876336  -1.14273672
H    1.35901761  -0.81026312  -1.45442990
H    2.02608161   0.53257890  -1.24539366
O   -1.12260797  -1.83172679  -3.60161071
H   -0.78873618  -1.58534685  -4.46419891
H   -1.81038946  -2.47187683  -3.78435749
O    0.76842755  -2.59078536  -1.69172402
H    1.30888144  -3.37127086  -1.81413245
H    0.20245993  -2.56735576  -2.46332207
O   -1.29233193   0.05057223   3.50695842
H   -1.50197514   0.31734795   4.40200718
H   -1.31331681  -0.90610721   3.53053675
O   -2.21158574   0.88203843   1.07293588
H   -3.05242643   1.33726209   1.02832399
H   -2.11033495   0.65502376   1.99729753
O   -0.61486089  -1.50816730   0.45128757
H   -0.83963760  -1.98785337   1.24853820
H   -0.20716469  -2.16275401  -0.11575026
O   -1.70051170   0.12366046  -1.72852524
H   -2.57438829   0.43813634  -1.96020707
H   -1.48986135  -0.51987760  -2.40507313
Ca  -0.51810932   0.48919557  -0.05967921
