37
Energy:  -1648.06630998
O    0.40402297  -1.75011982   0.27282013
H    0.15593483  -2.49989439  -0.26803310
H    0.91270058  -2.12913298   0.98963807
O   -0.50982286   2.20841602  -0.34427068
H   -0.86600783   2.61090356  -1.13633626
H   -0.41422374   2.93471696   0.27182964
O    0.38076311   0.67936328   1.92008956
H    0.41668409   1.54347622   2.33027287
H    0.91710683   0.12307667   2.48498996
O   -1.43701944   2.34754804  -3.01221070
H   -0.95250485   2.80012031  -3.70261334
H   -2.35684287   2.52568856  -3.20822769
O    2.04730235  -1.45601343   2.54898346
H    2.89631946  -1.24033496   2.16312781
H    2.26173567  -1.95427994   3.33764098
O    0.08784936   3.49668748   2.10115372
H    0.82727097   4.09999716   2.17534907
H   -0.58876298   3.87623659   2.66184086
O   -1.05070777  -2.86100420  -1.87601499
H   -1.93392294  -2.92852569  -1.51324282
H   -0.97777199  -3.60756638  -2.47062169
O   -3.40909729  -2.40737530  -0.42973514
H   -3.63455003  -3.08514912   0.20746621
H   -4.20775391  -2.28537587  -0.94305335
O    1.93632608   0.57343016  -0.54335302
H    2.30460723   0.98543953  -1.32492139
H    2.69600487   0.23275977  -0.07105685
O   -0.50593236  -0.13715235  -2.00462288
H   -0.88114543   0.46844803  -2.64391559
H   -0.71315291  -1.00656880  -2.34726923
O   -2.02678333  -0.18158747   0.48226063
H   -2.58737697   0.23943509   1.13395583
H   -2.53380524  -0.93534721   0.18058715
O    4.07466096  -0.47564080   0.87919389
H    4.70774879   0.11950720   1.28072907
H    4.61078956  -1.14355691   0.45177601
Ca  -0.05192825   0.22494310  -0.03507030
