37
Energy:  -1646.28151026
O   -1.16048789   1.37817232   1.71216809
H   -1.97188540   1.35595931   2.21948703
H   -0.54153329   1.84935817   2.26994130
O   -2.20598612   0.56304638  -0.91482360
H   -2.63207226  -0.26281347  -1.14425325
H   -2.83676549   1.23699583  -1.16808508
O   -0.90124184  -1.42544309   0.74187638
H   -1.57880535  -1.91862062   0.27936642
H   -0.34731066  -2.09581162   1.14187405
O    1.00173742   4.47496372   0.70510036
H    1.84123907   4.86983073   0.46941229
H    0.41676669   5.21977936   0.84399154
O    0.94686114  -3.33988989   1.55822063
H    0.75110558  -4.25140866   1.34132172
H    1.26234896  -3.37054700   2.46141464
O   -2.70095509  -2.09016303  -1.29005786
H   -2.25132736  -2.27114905  -2.11547340
H   -3.48961979  -2.63162244  -1.32263924
O    0.15845554   2.28322356  -0.76372470
H    0.35571634   2.48586812  -1.67819461
H    0.41505497   3.07005958  -0.28281134
O    2.50343495  -1.86211309  -0.27071719
H    2.15861298  -2.54423871   0.30550698
H    3.36652939  -2.18274048  -0.53243824
O    1.07590389   2.56324949   2.74503830
H    1.36214146   2.80090030   3.62698048
H    1.17487847   3.36762019   2.23570181
O    1.42934374   0.35397056   1.01695866
H    1.76428584   0.92722255   1.70647137
H    2.15004024  -0.24916707   0.83515272
O    0.45866161  -0.51644184  -1.58649515
H    1.25694563  -1.01548671  -1.41349607
H    0.05214476  -0.96371151  -2.32873887
O   -0.94206981  -1.99676906  -3.48208572
H   -1.28530515  -1.60361797  -4.28449059
H   -0.53912910  -2.81604735  -3.76958135
Ca  -0.37681294   0.44771785   0.04342263
