37
Energy:  -1645.59187540
O    1.26478649   2.71826726  -1.92305208
H    2.18020582   2.44468529  -1.98129481
H    1.19701399   3.45932757  -2.52510552
O   -1.86037361   0.43260521   0.91877680
H   -2.43731636  -0.32944283   0.97027147
H   -2.45115145   1.18438164   0.96400507
O    3.69195039   1.35453336  -1.54541178
H    4.41584456   1.87719329  -1.20039630
H    4.05318072   0.92745802  -2.32216859
O   -2.90547654  -2.11501016   0.95587361
H   -3.49889297  -2.50623057   1.59699403
H   -3.17886221  -2.48717010   0.11742915
O   -3.29924306  -3.13595315  -1.61449153
H   -3.41923376  -4.08515793  -1.64354942
H   -4.02366780  -2.78648207  -2.13344297
O   -0.12634153   0.32858969  -1.45402389
H    0.16095781   1.05535527  -2.00674691
H   -0.36810075  -0.36160809  -2.07160898
O   -0.20664972  -1.85731774   0.43040211
H   -0.16220632  -2.24200209  -0.44496900
H   -1.00961389  -2.21502420   0.80925100
O    0.97234250   2.63427703   3.44650505
H    1.82318514   2.89185716   3.80140099
H    0.33545416   3.10245846   3.98633025
O    0.49086884   2.18695440   0.68859234
H    0.69647468   2.72997003   1.44957336
H    0.74013765   2.72377463  -0.06368483
O    2.18796437  -0.16424467   0.22194646
H    2.77226137  -0.83009362   0.58453996
H    2.73877336   0.33634334  -0.37992808
O    0.51096885   0.03612863   2.61194805
H    0.68969061   0.84720853   3.08780493
H    0.51964522  -0.64408522   3.28534667
O   -0.70453758  -2.30023867  -2.24966515
H   -0.33776751  -2.81297906  -2.96994902
H   -1.60783109  -2.60728915  -2.17212361
Ca   0.16545798   0.16266208   0.57356124
