37
Energy:  -1645.73606784
O   -0.08178572   2.83622034   1.29657939
H    0.06001792   3.70985660   1.66111094
H   -0.53245250   2.35645444   1.99152973
O   -1.19515052  -0.07591393  -4.94878374
H   -0.91641324  -0.71109872  -5.60838791
H   -1.79448470   0.50688844  -5.41501522
O   -0.16564849  -0.82664294   4.45446575
H   -0.74578508  -1.33487911   5.02136026
H    0.48416891  -0.45265764   5.04953229
O    2.81231516  -1.17823374   0.65922536
H    3.72806309  -1.37814823   0.85331751
H    2.32008055  -1.60034886   1.36332461
O    1.13621388  -1.52092938  -1.46929064
H    1.85693939  -1.60962036  -0.84565573
H    1.24691836  -2.25761505  -2.07034852
O   -1.26539465   1.81038016  -0.94039601
H   -1.01995323   2.38095937  -0.21208995
H   -2.00575516   2.25423160  -1.35403121
O    1.43884433   1.07276118  -0.22338634
H    1.27411351   1.79946774   0.37744075
H    2.15218462   0.58148008   0.18406962
O   -0.75947391  -0.63432299   0.54675768
H   -1.19778002  -0.11668528   1.22216185
H   -0.31971192  -1.33467408   1.02878423
O    0.74456132  -2.22635438   2.21530430
H    0.74344995  -3.16455179   2.40508376
H    0.50884491  -1.81320297   3.04595196
O   -1.50592827   0.89534953   2.71093031
H   -1.07439057   0.38293973   3.39462853
H   -2.35376431   1.13165518   3.08718226
O   -1.60414140  -0.79188777  -2.29627296
H   -1.68048946  -0.69620798  -3.24561389
H   -2.33621465  -1.35835309  -2.05251559
O    0.58488099   0.90553623  -3.04779433
H    1.31756827   1.47210928  -3.28944738
H    0.14291639   0.71840103  -3.87597279
Ca  -0.08282555   0.13807500  -1.24575609
