37
Energy:  -1645.06185846
O   -1.27125973  -1.87253124  -2.49687162
H   -1.87393333  -2.20882682  -3.16013752
H   -0.45722136  -2.35337931  -2.64639928
O    2.83234575  -1.53436137   2.19262880
H    3.66027340  -1.09017325   2.37556204
H    2.94062747  -2.40806965   2.56831586
O   -1.49147330  -1.25169598   0.22391666
H   -1.90452937  -1.77426299   0.91133229
H   -1.72338606  -1.69922737  -0.58981792
O    0.29454957  -0.34309510   2.28034076
H    1.13899400  -0.69360259   2.56369558
H   -0.35276596  -0.85637205   2.76382936
O   -1.46763942   1.60396885   0.87557573
H   -2.20467164   1.54841677   1.48379388
H   -1.53113764   2.48262658   0.50119570
O   -1.58011324   4.12158199  -0.27728097
H   -2.35322249   4.34099191  -0.79727446
H   -1.44496206   4.88412320   0.28529960
O    1.40958715  -1.17926999  -0.20917619
H    2.09069818  -1.46597747   0.39919741
H    1.49617132  -1.76622922  -0.96031792
O    1.35642293  -2.85640296  -2.42677909
H    1.90721143  -2.64704063  -3.18112072
H    1.44563851  -3.80343029  -2.31995372
O   -0.35815872   0.63425274  -1.66018604
H   -0.13362698   1.41771242  -2.16219029
H   -0.72203924   0.03044893  -2.30767639
O   -1.84036749  -1.99299200   2.97824448
H   -1.67576709  -2.89283678   3.26005636
H   -2.57926154  -1.70499525   3.51427180
O    0.65817704   3.25730016  -1.72967629
H    1.11077500   3.83634068  -2.34294542
H   -0.06598547   3.78432031  -1.39193339
O    1.38244351   1.70689209   0.40446955
H    2.02143846   2.06379444   1.02134719
H    1.36003564   2.34143730  -0.31182795
Ca  -0.03682653   0.20328416   0.32006240
