37
Energy:  -1645.14901905
O   -1.59160706   0.93221318   0.22362297
H   -2.44150900   0.50525847   0.11588148
H   -1.60689456   1.27520209   1.11713108
O    0.70166128  -0.12890336   1.57740139
H    1.48332906  -0.55699960   1.92663047
H    0.21194410   0.14588194   2.35258006
O    2.67358616   2.39728706  -2.82147863
H    3.59724047   2.61158105  -2.69043417
H    2.35360361   3.07123930  -3.42117137
O   -0.93489248  -1.81176207  -0.22584930
H   -0.76078380  -2.73046824  -0.43053687
H   -1.85215988  -1.79641559   0.04731155
O    1.83079656  -1.06431820  -0.88116827
H    2.49893860  -1.37160032  -0.26847279
H    2.26355304  -1.07794342  -1.73484739
O    2.08086670  -0.24468471  -3.54664452
H    2.40522174  -0.63068086  -4.36029839
H    2.44892490   0.63886899  -3.53675216
O   -3.73727840  -0.44545297   3.20235284
H   -4.51712727   0.06842373   3.41211063
H   -3.74824519  -1.16619526   3.83214815
O   -1.40798128   1.08548788   2.97101850
H   -1.35850713   1.75389211   3.65440707
H   -2.18757602   0.57524440   3.19037092
O    1.11836216   1.77593184  -0.61278412
H    1.65889135   2.02333797  -1.36301758
H    1.11123422   2.55390973  -0.05517184
O    3.13473313  -1.56211800   1.56104446
H    3.95810673  -1.14284945   1.81104774
H    3.20733738  -2.45448758   1.89962534
O   -3.48755731  -1.07182864   0.49153180
H   -3.67909696  -0.95365505   1.42189701
H   -4.31438904  -1.36967259   0.11222965
O   -0.38605326   0.06530839  -2.39938128
H   -1.15423318   0.24143790  -2.94262142
H    0.32470674  -0.07114655  -3.02582530
Ca   0.11932433  -0.03333126  -0.39764345
