37
Energy:  -1646.99336922
O    2.18520703   2.86532897   0.59900548
H    2.84810918   3.55058891   0.51408548
H    2.07789428   2.75093261   1.54326672
O   -2.44219463   0.38760588  -0.44514474
H   -3.18898987   0.95206448  -0.64493268
H   -2.83388203  -0.41910790  -0.11044232
O   -2.95154967  -2.03357135   0.70442404
H   -2.81200629  -1.91247548   1.64362332
H   -3.66896284  -2.66471674   0.64780518
O    1.68348709   0.30771106  -0.47281276
H    2.21497132  -0.45319942  -0.70684606
H    2.32000009   0.97655770  -0.22037024
O    1.32668001   2.02983173   3.12591047
H    0.94949602   2.71453285   3.67831292
H    1.99377262   1.61846105   3.67544979
O   -0.37109048   0.42378281   1.61415823
H    0.18671370   0.94816688   2.18870822
H   -0.90876817  -0.09649053   2.21119273
O   -0.39678229  -1.67622371  -0.43027217
H   -1.08928346  -2.27489421  -0.15050870
H    0.33306080  -2.24797872  -0.66829974
O    1.25274521  -1.39917388  -3.95470087
H    1.92560033  -1.02012351  -4.52022599
H    0.83009453  -2.06475013  -4.49747753
O    2.13477357  -2.26933678  -1.43981313
H    2.01252003  -2.16159906  -2.38304083
H    2.79398516  -2.95881193  -1.36046609
O   -2.02263477  -1.16413901   3.19469517
H   -1.63151652  -1.83862126   3.74997173
H   -2.67680939  -0.74351825   3.75269659
O   -0.28150312   2.44829096  -0.48933594
H   -0.81449510   3.21684844  -0.69297974
H    0.54982312   2.80792831  -0.17983714
O   -0.37414869   0.33798675  -2.53759335
H   -0.86328545   0.83760986  -3.19131641
H    0.17792897  -0.25230634  -3.05042487
Ca  -0.37068355   0.37887001  -0.45824850
