37
Energy:  -1652.96268221
O    0.13586967   2.02918280   0.11787547
H   -0.14506899   2.72256520  -0.47922265
H    0.97335271   2.33623098   0.46511521
O   -0.93223277  -1.93238669   0.51805802
H   -0.60647913  -2.62254356  -0.05969618
H   -1.24291219  -2.39679829   1.29525298
O   -0.99752341   0.33151388   2.25989839
H   -1.25815689  -0.43053028   2.77719012
H   -1.14046938   1.07737285   2.84255840
O   -0.73759044   3.83872618  -1.80109580
H   -1.37155545   4.51624439  -1.56595906
H   -0.09872641   4.28918803  -2.35351658
O   -1.72264950  -2.16079817   3.22712527
H   -1.20001824  -2.60498701   3.89479636
H   -2.62900774  -2.36825092   3.45452347
O    0.62855994  -3.03962014  -1.49277254
H    0.57183491  -3.79356779  -2.07977940
H    1.50523157  -3.09676738  -1.11275558
O   -2.34442980   0.54454594  -0.33876444
H   -3.24915750   0.46037496  -0.03774138
H   -2.41917577   0.87351447  -1.23454599
O    2.96939854  -2.59440631  -0.01088917
H    3.75307523  -2.46147921  -0.54419310
H    3.22039825  -3.26846280   0.62067939
O    2.67088835   2.12988770   1.27451032
H    2.83472670   2.47947944   2.15039528
H    3.42741658   2.40959943   0.75908988
O    1.51648437  -0.37560449   0.83268981
H    2.12926028   0.31302224   1.09062536
H    2.07319676  -1.12378331   0.61697792
O    0.03850918  -0.32040690  -1.68189818
H   -0.37179987   0.10627304  -2.43410996
H    0.27947621  -1.19000570  -2.00121724
O   -1.79298680   1.46672251  -2.85143111
H   -1.50363016   2.36947076  -2.71895401
H   -2.27040766   1.48699893  -3.68082247
Ca  -0.43281902   0.05032484   0.28526844
