37
Energy:  -1649.99508783
O   -2.66797419  -2.91317220  -0.84216763
H   -3.46316690  -2.81080871  -1.36506545
H   -2.78784193  -3.74463928  -0.38333643
O   -2.12188633  -0.32459777   3.24565242
H   -2.28425075  -1.05029816   3.84833691
H   -2.69889140   0.37516374   3.55164396
O   -1.58211147  -0.76443555   0.54736056
H   -2.02814074  -0.70465970   1.39217805
H   -2.02822989  -1.47743312   0.09036530
O   -0.20922212  -2.64206628  -2.13208292
H   -1.07968315  -2.91803130  -1.84507641
H    0.01547892  -3.25051984  -2.83601869
O    1.62134865   3.75303165   0.70082033
H    1.80164404   4.15254355   1.55177019
H    1.83954643   4.43427927   0.06479891
O    2.11116457   1.03355207   0.11033074
H    2.32778509   1.95673727   0.24085466
H    2.95826824   0.60133630   0.00153387
O    3.93780223  -1.10306198  -0.08240714
H    4.42518857  -1.24927655  -0.89315228
H    4.54406740  -1.36108361   0.61192652
O   -0.55705577   2.04885627   0.26750317
H   -0.01913825   2.80623782   0.49826229
H   -1.10688566   2.35571740  -0.45343732
O   -1.75578601   2.35809660  -2.23928683
H   -1.46646264   3.03722207  -2.84864093
H   -2.70583153   2.32426563  -2.35109388
O    0.43793560   0.16409152   2.31803137
H    1.15447851   0.18962573   2.95218128
H   -0.34884085   0.04329018   2.84965315
O   -0.10151642   0.12754016  -1.77983608
H   -0.16170942  -0.68124860  -2.28823494
H   -0.63454715   0.75674265  -2.26585492
O    1.19910313  -1.66364241   0.04407311
H    2.15194249  -1.75395650   0.03094392
H    0.89049822  -2.27935498  -0.62067713
Ca   0.25116037   0.15052559   0.25027814
