37
Energy:  -1650.66621763
O   -1.64011292   1.99444969  -3.13080542
H   -2.41067366   1.87925903  -3.68686217
H   -1.01989073   2.47719227  -3.67717149
O   -1.31219066  -2.10670990   0.48571803
H   -1.21862994  -2.57294971  -0.34500375
H   -1.69357956  -2.75172999   1.08130466
O   -2.50681819   0.58690974   0.66162783
H   -3.38171705   0.31358816   0.93745230
H   -2.63066633   1.46824710   0.30929567
O    0.11910228   1.76560351   0.53291974
H    0.66355088   2.13109382   1.23021768
H   -0.39120196   2.50920264   0.21216788
O   -0.40395605  -0.20697674   2.57165051
H   -0.82786937  -0.59259033   3.33835221
H    0.23438084   0.40741201   2.93398230
O   -0.60984804  -2.82919290  -2.06047233
H    0.31957976  -3.05538014  -2.02532771
H   -0.97860635  -3.42953766  -2.70841934
O    1.54923117   1.67875944   2.91486166
H    2.38338028   1.26466989   2.69359949
H    1.76489902   2.29298897   3.61660328
O    2.10077724  -2.93114905  -1.41234846
H    2.41720413  -3.75993262  -1.05287154
H    2.71000324  -2.72941750  -2.12254554
O    3.52418853   0.07866843   1.76647095
H    4.21910125   0.54857940   1.30548087
H    3.98706446  -0.50524966   2.36731817
O    1.35072779  -0.89598054   0.32997726
H    2.13239966  -0.59455139   0.79296907
H    1.66729330  -1.58901074  -0.24944250
O   -0.76442778  -0.11499996  -1.55023402
H   -1.02548364   0.56474126  -2.17155001
H   -0.75306761  -0.92076025  -2.06681234
O   -2.10499601   3.01264204  -0.57080996
H   -2.52342333   3.86839964  -0.47684527
H   -2.05027180   2.87479831  -1.51645060
Ca  -0.57994013  -0.16759239   0.50525734
