37
Energy:  -1645.82191358
O    0.11137405   2.40929188   1.39028445
H    0.64706856   3.13777479   1.70425243
H   -0.51060378   2.24577488   2.09925385
O    0.54174070  -2.34304177   2.14828468
H    0.18007115  -3.11566032   1.71413314
H    0.84209269  -2.66409848   2.99854530
O   -1.62267763  -2.25035848  -0.75290697
H   -2.38866426  -2.57988500  -1.22291612
H   -1.27536636  -3.01519063  -0.29395326
O   -0.62659467  -4.39926338   0.69080284
H   -0.04497273  -5.03408771   0.27253757
H   -1.26266395  -4.93353242   1.16641225
O   -1.01418335   2.41108929  -1.31914627
H   -1.54790474   3.18458070  -1.13725518
H   -1.16751066   2.22619447  -2.24571871
O   -1.49845717   0.17169582   0.62975473
H   -1.79136802  -0.70820389   0.39266494
H   -1.88898158   0.33124977   1.48897825
O    3.97293396   0.45721141  -0.12004263
H    4.64160250   0.79992662   0.47296708
H    4.45340968  -0.11456092  -0.71875068
O   -1.86089157   1.48899710   3.09474296
H   -1.63773071   1.08096753   3.93136889
H   -2.65064797   1.99754496   3.27885096
O   -0.02238913  -0.22188125  -1.79185451
H   -0.44420326  -1.07109503  -1.66093225
H   -0.26666657   0.03278199  -2.68163370
O    1.39445452  -0.19713239   0.77989463
H    2.34604388  -0.24496665   0.68812634
H    1.16427829  -0.96822061   1.29823208
O    1.84435512   1.99026690  -0.98064491
H    2.05183546   2.75317100  -1.52023837
H    2.69263375   1.58368371  -0.80359883
O   -1.08159598   1.34047211  -3.87484642
H   -1.92415716   1.11489397  -4.26910142
H   -0.55581312   1.66931313  -4.60398825
Ca   0.14072625   1.08980936  -0.20851592
