37
Energy:  -1645.08189920
O   -0.45592351   2.58766973   2.65372820
H   -1.26325802   2.95219726   2.29101273
H   -0.34051044   3.04298580   3.48775395
O    1.89104756  -2.83539570  -1.52096158
H    2.20894625  -3.73795166  -1.54473152
H    2.14919981  -2.46769256  -2.36617378
O    2.35827049  -1.05843951  -3.63900875
H    1.99910863  -1.30609418  -4.49100744
H    3.27805964  -0.86012893  -3.81477189
O   -3.12970552  -0.95008500  -1.29851807
H   -3.48317948  -0.95508117  -2.18804775
H   -3.83262503  -1.31198417  -0.75892100
O    0.88302005   0.64710981  -2.02578113
H    0.61118485   1.37944603  -2.57897291
H    1.41200225   0.09489213  -2.60151136
O    0.24434244  -2.28768164   3.43802448
H   -0.36493098  -3.01643389   3.55608333
H    0.84505707  -2.35444786   4.18026167
O    1.16035761   2.04984976   0.51755249
H    0.76900747   2.45002647   1.29404172
H    1.88102619   2.63473302   0.28350075
O    2.16879422  -0.73408618   0.20808845
H    2.89246619  -0.70825640   0.83407851
H    2.30128065  -1.54768643  -0.27846457
O   -2.63103440   3.22623201   1.02097456
H   -3.49607673   3.11209113   1.41455490
H   -2.65149850   4.10750356   0.64791489
O   -0.45629166  -1.55683675  -0.67454495
H    0.03590778  -2.30693919  -1.00818832
H   -1.35861307  -1.72070062  -0.94876485
O   -1.49348557   1.10318161  -0.36659049
H   -2.20972662   0.57222841  -0.71489970
H   -1.92636562   1.85753271   0.03316087
O   -0.13477736  -0.09904888   1.90800679
H   -0.03870307  -0.86702976   2.47121807
H   -0.36090959   0.61173039   2.50791419
Ca   0.35824729   0.22796763  -0.05490447
