11
Energy:   -202.18352114
O   -0.48142363  -1.64319682  -0.77514698
H   -0.44247984  -1.31523643   0.12327230
H    0.39704545  -1.49219805  -1.12403563
O   -1.35968074   0.94198431  -1.24984235
H   -1.17894654   0.01097713  -1.12025598
H   -0.78820193   1.38678665  -0.62390729
S    1.09621187   0.56260465   1.32556857
O    1.79063768   0.94923840   2.58588089
O    0.46960313   1.76810535   0.71382552
O    2.08283459  -0.02136623   0.37391021
O    0.04177209  -0.44555892   1.62865766
