11
Energy:   -203.63458488
O    0.53264159  -0.11537530   3.28341874
H   -0.30586021  -0.56215936   3.16709774
H    0.84677113   0.04109135   2.39287247
O   -0.00507085   0.89344043  -3.11418103
H    0.26343805   0.03623287  -2.78353014
H   -0.60151161   1.23213355  -2.44651551
S   -0.22977473  -0.43997768  -0.13346107
O   -1.19228700   0.63007801  -0.51901384
O    0.92456442   0.16652594   0.58747892
O   -0.90998510  -1.42289810   0.75607888
O    0.25860878  -1.13361661  -1.35838826
