11
Energy:   -203.96621529
O    2.01450120  -2.26288280  -1.32264480
H    2.08377283  -1.97535617  -0.41228128
H    1.39635863  -1.65039972  -1.72138794
O   -2.63349422   1.88986813   0.68718085
H   -1.91281389   2.51095944   0.79252461
H   -2.21842963   1.02908718   0.74203870
S    0.36279423   0.14944193   0.35680650
O    1.39026873  -0.74675943   0.95782168
O   -0.98320741  -0.21675718   0.88052187
O    0.66693582   1.56359402   0.71425829
O    0.37717976  -0.00230966  -1.12537585
