11
Energy:   -201.85978925
O   -1.15769023  -0.42263594   1.49794170
H   -0.59034414   0.32929831   1.32780895
H   -1.55600551  -0.61943495   0.65009328
O    0.83297131  -1.86835873   0.09547668
H    1.06224012  -1.20497931  -0.55536539
H    0.31049133  -1.39725311   0.74455758
S    0.28779052   1.45161332  -1.04467837
O   -1.13346762   1.29793690  -1.46480794
O    1.07222206   0.27150339  -1.50522991
O    0.85323796   2.69050494  -1.64925820
O    0.35916970   1.54650805   0.44058256
