11
Energy:   -203.06652203
O   -1.42174723   2.73320176   0.81674354
H   -0.98822418   2.22468653   1.50209154
H   -1.32386107   2.20271055   0.02602916
O    2.30961610  -2.01994646  -0.13573915
H    1.85979690  -1.41892899   0.45812323
H    1.75766304  -2.04286218  -0.91743893
S   -0.60418006  -0.46662303  -0.47865603
O   -1.00985438   0.84738756  -1.05215800
O   -1.81222182  -1.19024363   0.00828167
O    0.07199333  -1.27931323  -1.52861994
O    0.33336265  -0.24432283   0.65787216
