11
Energy:   -202.22377603
O    0.32220877  -1.21636886  -1.75367765
H    0.90680702  -1.14155291  -0.99943678
H   -0.44942016  -0.70461249  -1.51093076
O   -1.50821949   0.71584827  -0.73942914
H   -0.90084329   1.44728559  -0.62840908
H   -1.46238803   0.23803117   0.08871466
S    0.84363792   0.21086701   1.55768495
O    0.85891079   1.60154422   1.02300408
O   -0.55792984  -0.29383775   1.58900451
O    1.66831695  -0.66740633   0.68096353
O    1.40525379   0.20316789   2.93776769
