11
Energy:   -207.83820870
O   -0.70291588   0.46191618  -2.80777005
H   -1.43353870   0.25263381  -2.22585681
H    0.04506427   0.57761366  -2.22179084
O    2.03722037  -0.81700170   1.99233872
H    2.05090353  -0.12854918   1.32744945
H    1.11623777  -1.06958154   2.05734890
S   -0.86667051   0.20684746   0.52419988
O   -0.67496539  -0.87670405   1.52882184
O    0.40186276   0.41599588  -0.22891384
O   -1.94896703  -0.18057697  -0.42376455
O   -1.24461238   1.46867500   1.22065607
