11
Energy:   -202.70286700
O    1.09113248   0.48126179   3.02471053
H    1.51398030   0.19183571   2.21621556
H    0.30362659   0.94034031   2.73262623
O   -0.59364517  -1.25141411  -2.94654961
H   -0.89403358  -1.38569481  -2.04767957
H   -0.13469278  -0.41173923  -2.92329780
S   -0.35149452   0.41870922  -0.02226831
O   -1.15931301  -0.81616380  -0.22870932
O   -0.44148321   1.27960541  -1.23505840
O   -0.87635574   1.16433455   1.15614740
O    1.07117388   0.04706075   0.21854708
