11
Energy:   -202.67489268
O    1.63879497   0.27716803  -1.30157742
H    1.48049578  -0.42377381  -0.66923753
H    0.87839416   0.85245563  -1.21751415
O    0.80952938  -1.50679535   0.66601834
H    0.01268206  -1.81146643   0.23191959
H    0.54824234  -0.69880954   1.10774208
S   -1.51268088   0.89850074   0.34510476
O   -0.59806543   0.72034735   1.50779129
O   -0.81153215   1.66067408  -0.72614790
O   -1.91642473  -0.43680854  -0.17838359
O   -2.72470122   1.64979006   0.77715924
