11
Energy:   -201.86220070
O   -1.15841954  -1.01211248  -1.04956097
H   -0.27108170  -1.16013154  -0.72252311
H   -1.09095204  -0.21411700  -1.57385402
O   -1.55731704   0.26819744   1.36460776
H   -1.55801604  -0.25782333   0.56489937
H   -0.66315737   0.60339283   1.43059556
S    1.75561600   0.49154645  -0.04200705
O    3.23368868   0.58950382   0.11863383
O    1.33490904   1.26067853  -1.24680642
O    1.36734144  -0.93775213  -0.20463683
O    1.08652482   1.05375559   1.16478120
