61
Energy:  -1427.73592584
O   -0.88795917   1.24411085  -2.15919555
H   -0.12074317   1.57556961  -1.69256234
H   -0.58402905   1.11173503  -3.05715711
O    2.58237269   1.80287562   1.40012627
H    3.24255898   2.48278207   1.53471129
H    2.27704849   1.93902325   0.50320219
O    0.01977248   4.48481669  -0.87651712
H   -0.24268391   5.37837436  -1.09765773
H   -0.67348515   4.16731514  -0.29788211
O    2.40238173  -0.65291178   2.69866911
H    2.63117203   0.13867561   2.21155900
H    2.48716108  -1.36070583   2.05986407
O   -1.77391063   3.22567377   0.84249631
H   -1.17507210   2.72955182   1.40060676
H   -2.34992866   3.68276655   1.45527789
O    0.26195129   0.47813602  -4.54759186
H   -0.06930300   0.54801876  -5.44292356
H    0.16919053  -0.44916092  -4.32907943
O    2.62190052   1.00317805  -3.21129685
H    1.89637196   0.88906919  -3.82515296
H    3.38440418   1.16176553  -3.76777688
O   -3.05087054  -0.90047535   1.62115304
H   -2.56714613  -1.19114506   2.39429835
H   -3.18003437  -1.69653696   1.10556166
O   -0.04222482   1.57568833   2.16325319
H   -0.03596524   1.11517126   3.00236981
H    0.87794253   1.77722921   1.99323796
O    2.39640956  -2.64369120   0.77313041
H    2.38559127  -2.19247538  -0.07097806
H    3.13617666  -3.24811193   0.71269806
O   -2.73996640   0.94657464  -0.32528404
H   -2.92402015   0.38696200   0.42916262
H   -2.50691275   1.79340818   0.05522981
O    1.88808908  -1.13234868  -1.50164650
H    2.30344851  -0.41394258  -1.97872203
H    1.25689323  -0.70345456  -0.92382864
O    0.36692822  -0.05679441   4.35646793
H    0.69521930   0.18955340   5.22120464
H    1.14705007  -0.32532916   3.87115275
O    0.04859594  -1.97307593  -3.32367563
H    0.20342673  -2.87077873  -3.61759560
H    0.74888276  -1.80264134  -2.69376908
O   -1.37420425  -1.99703378   3.57454693
H   -0.79625234  -1.32691644   3.93943897
H   -1.72236098  -2.45585921   4.33907160
O   -0.35803227  -2.87930733   1.16553984
H   -0.57570890  -2.70882797   2.08193796
H    0.59294012  -2.98822439   1.16101869
O   -0.11098475  -0.34331422   0.17842180
H   -0.26890559  -1.19416633   0.58749826
H   -0.09291421   0.27465576   0.90918743
O   -2.12707116  -1.05353346  -1.91594273
H   -2.45944153  -1.76237952  -1.36521681
H   -1.44142290  -1.46171075  -2.44462941
O    1.41862074   2.17959251  -1.02335213
H    1.93500014   2.06208859  -1.82070838
H    1.08808449   3.07603304  -1.08142107
O   -2.76568879  -3.03272302  -0.13555355
H   -1.91738339  -3.17750935   0.28354870
H   -3.18267065  -3.89432322  -0.13730901
H   -1.89502531   0.35939396  -1.38378760
