61
Energy:  -1424.63772546
O   -1.14142283   1.81840493  -2.18404623
H   -0.69608550   2.58366377  -1.82033560
H   -0.62743511   1.58676800  -2.95760477
O    3.19431499   1.40848765   1.79691481
H    3.94027615   1.87705761   2.17136906
H    3.04898542   1.82748664   0.94865128
O    0.09319962   3.88090888  -0.89278394
H    0.06366742   4.81956657  -1.07793640
H   -0.37568431   3.78494264  -0.06382665
O    1.47746751  -3.82569352   1.23310570
H    2.06936776  -3.07920320   1.32604730
H    2.05180966  -4.59119912   1.25218758
O   -1.32968273   3.16742852   1.33901347
H   -0.71805642   2.59012053   1.79602615
H   -1.75685534   3.66483677   2.03639459
O    0.39119103   0.84284960  -4.24583865
H    0.15543944   0.92173061  -5.17019292
H    0.22752524  -0.07615662  -4.03400635
O    2.77145332   1.06945698  -2.86936610
H    3.53299980   1.14966010  -3.44368854
H    2.02030593   1.09214092  -3.46223615
O   -3.47813711  -0.57468440   1.48803971
H   -3.67294394  -1.32683931   0.92898233
H   -2.99193442  -0.94336738   2.22554337
O    0.48710277   1.35286477   2.31023269
H    0.46794009   0.61768062   2.92290626
H    1.41830590   1.52864047   2.17534209
O    2.58995102  -1.27057334   1.37005044
H    2.46587292  -1.26378987   0.42095063
H    2.98087801  -0.41934248   1.56706299
O   -2.79690904   1.40528996  -0.19114770
H   -3.12422954   0.75980867   0.43530824
H   -2.38125617   2.07613009   0.35055153
O    1.85888160  -1.00224591  -1.28094145
H    2.30984571  -0.31513555  -1.77159670
H    1.15230235  -0.54629979  -0.82367704
O    0.84089318  -1.07935118   3.55913574
H    1.37928845  -1.21798958   4.33832877
H    1.42620526  -1.26963420   2.82603685
O   -0.07671500  -1.61217659  -3.10567162
H   -0.03152620  -2.50748169  -3.44125857
H    0.64136064  -1.55564743  -2.47527201
O   -1.77139778  -1.89907891   3.28472369
H   -0.88535613  -1.61838260   3.51357219
H   -2.07901310  -2.37525359   4.05599688
O   -0.92176556  -2.61038317   0.79286860
H   -1.22931561  -2.49118803   1.69144377
H   -0.12706216  -3.13692661   0.87906810
O   -0.24158470  -0.04173173   0.06191735
H   -0.50210705  -0.90921789   0.37147788
H    0.02165782   0.42669673   0.85407263
O   -2.33739328  -0.50543289  -1.94852523
H   -2.82469861  -1.20010735  -1.50558871
H   -1.60846927  -0.95720442  -2.37373592
O    2.47494479   2.51631109  -0.54423129
H    2.63841009   2.10653506  -1.39369850
H    1.70210220   3.06292613  -0.68621079
O   -3.35221622  -2.56160690  -0.45102889
H   -2.50079259  -2.78681324  -0.07607320
H   -3.79430979  -3.40289943  -0.56509904
H   -2.06119461   0.87201680  -1.36141614
