61
Energy:  -1424.10310273
O   -0.98423620   1.28490796  -2.44227941
H   -0.50444109   1.99908699  -2.02278352
H   -0.42734783   1.01890623  -3.17395576
O    3.14396219   1.55731248   1.87596779
H    3.86794323   2.08551840   2.21224419
H    3.18360721   1.67250998   0.92655236
O    0.40519621   3.16611319  -1.06278228
H    0.22556828   4.10615415  -1.04579255
H    0.32681206   2.89026211  -0.14954959
O    2.17994936  -0.78866100   2.93458165
H    2.64216147  -0.02186903   2.59602312
H    2.36311994  -1.47969320   2.29806387
O   -2.44827904   3.23024074   1.10313045
H   -2.90856613   3.98997872   1.45973363
H   -2.20025986   2.71715889   1.87219829
O    0.65163462   0.25573435  -4.39268085
H    0.40341338  -0.65160445  -4.21560921
H    0.47315573   0.37570958  -5.32540969
O    3.03029705   0.22942718  -2.97183402
H    3.80325012   0.28247125  -3.53393874
H    2.29116318   0.34807526  -3.56835360
O   -3.68385753  -0.40223956   1.54315680
H   -3.47351469  -1.26752415   1.19205807
H   -4.57478523  -0.49072654   1.88175646
O    0.45075826   1.95223513   1.36970734
H    1.30983125   1.86898679   1.78358555
H   -0.17201361   1.73732560   2.06411424
O    2.19010011  -2.84344713   1.05511547
H    2.20674546  -2.52041581   0.15422394
H    2.82213598  -3.56225369   1.06403906
O   -2.77595506   1.09139551  -0.53961992
H   -3.20114074   0.56124470   0.13446398
H   -2.65510442   1.94819364  -0.13032306
O    1.78805727  -1.67643614  -1.40538380
H    1.18923816  -1.10053224  -0.93000792
H    2.37460090  -1.08067632  -1.87150467
O   -1.71099145   1.08821176   2.86417617
H   -1.25988800   0.47126940   3.44047440
H   -2.42375064   0.57896758   2.47833092
O   -0.06460145  -2.16865246  -3.32602130
H    0.62219976  -2.13352549  -2.66021198
H   -0.01126243  -3.05671029  -3.67920692
O   -0.26235825  -0.94414229   4.04679055
H    0.64919787  -0.83614543   3.77543477
H   -0.20941820  -1.21537667   4.96322992
O   -0.48156588  -2.38370335   1.69240518
H   -0.47736499  -2.00349790   2.57084585
H    0.40768402  -2.71631796   1.57061038
O   -0.08163141  -0.29937859  -0.02780343
H   -0.24535638  -0.96205629   0.64322879
H    0.16845929   0.48306688   0.46358804
O   -2.17070754  -1.01778566  -1.97758525
H   -2.41945140  -1.63364168  -1.28832500
H   -1.51269950  -1.48582092  -2.49158939
O    2.90836560   1.94376770  -0.80614804
H    3.03118669   1.39248445  -1.57895695
H    2.13176892   2.46669024  -1.00535010
O   -2.75540634  -2.61777342   0.20961254
H   -1.96036033  -2.68256010   0.73870267
H   -3.11485171  -3.50491700   0.20693770
H   -1.92195426   0.44651974  -1.60343468
