61
Energy:  -1432.23027051
O   -0.83918707   1.59492581  -2.19878251
H   -0.39922589   2.33731846  -1.78463379
H   -0.41870772   1.51387843  -3.05485510
O    3.13571082   1.30734316   1.59364811
H    3.93403999   1.72603651   1.91551495
H    3.07699047   1.57557112   0.67667618
O    0.39794170   3.56579413  -0.77944276
H    0.43697141   4.50544192  -0.95768574
H   -0.16465153   3.49090374  -0.00865607
O    1.41643824  -2.91858755   2.74905361
H    1.98763391  -2.42732588   2.15860520
H    1.93095829  -3.68682568   2.99666447
O   -1.31282281   2.89980345   1.25351808
H   -0.72519247   2.33484986   1.75526490
H   -1.76859790   3.42002735   1.91523404
O    0.43810161   1.07546006  -4.57279694
H    0.05333262   1.13800817  -5.44702369
H    0.40782189   0.14191366  -4.36349782
O    2.90914501   2.02430773  -3.71855215
H    2.09562554   1.73278016  -4.13017043
H    3.49811754   2.20359233  -4.45149160
O   -3.70464234  -0.71997229   1.13491195
H   -3.34206761  -0.96116313   1.98731937
H   -3.65543934  -1.52353083   0.61712378
O    0.47765260   1.13337556   2.34343832
H    0.42111725   0.50848746   3.06631483
H    1.41679771   1.24783000   2.19804746
O    2.86587088  -1.39671163   1.07413777
H    2.63789793  -1.32351557   0.14736783
H    3.10461687  -0.50680615   1.33356105
O   -2.74081325   1.23053768  -0.42944250
H   -3.17443610   0.59754847   0.14285788
H   -2.33841966   1.85939500   0.16959816
O    1.75423407  -0.70605583  -1.36070639
H    2.13841759   0.17053240  -1.37580431
H    0.99759793  -0.62649597  -0.77984167
O    0.19934005  -0.91047144   4.18087340
H    0.55959981  -0.86064650   5.06628982
H    0.67614898  -1.63045147   3.76794017
O    0.19350968  -1.41524342  -3.45482404
H    0.45098313  -2.26546482  -3.81128279
H    0.83372926  -1.24036622  -2.76506415
O   -2.36495119  -1.64053972   3.41860068
H   -1.55845040  -1.30079321   3.80636431
H   -2.88394584  -1.93768494   4.16598353
O   -0.98404558  -2.82610896   1.37563416
H   -1.51815465  -2.54051678   2.11684699
H   -0.13911761  -3.05510115   1.76279195
O   -0.35326518  -0.40739697   0.25798281
H   -0.58675800  -1.25237710   0.64232838
H   -0.05471762   0.11922569   0.99944742
O   -2.12797484  -0.68701958  -2.12856776
H   -2.46899150  -1.44029570  -1.64637010
H   -1.40256218  -1.04017549  -2.64363011
O    2.59452187   1.91065809  -1.02410014
H    2.87612607   2.02129885  -1.93222433
H    1.88141708   2.53989841  -0.91561048
O   -2.93851172  -2.79376282  -0.55860512
H   -2.22611811  -3.01942707   0.03956111
H   -3.37300087  -3.62724108  -0.73961619
H   -1.91361868   0.66147579  -1.50627565
