61
Energy:  -1424.72779068
O   -1.21547936   1.70344300  -2.26599581
H   -0.75857700   2.45603718  -1.89039751
H   -0.59868875   1.34119776  -2.90206151
O    2.86785016   1.27488580   1.87135315
H    3.59678852   1.70393000   2.31946228
H    2.80208646   1.72873451   1.03115774
O    0.06414381   3.72707997  -0.95796045
H    0.04810339   4.66382894  -1.15411326
H   -0.37663539   3.65152028  -0.11165301
O    1.08174064  -2.98574113   2.32206398
H    1.70586889  -2.44338252   1.83983695
H    1.55524463  -3.79914075   2.49643969
O   -1.32656440   3.09805170   1.31986601
H   -0.80298223   2.41114244   1.73247870
H   -1.66077033   3.61712901   2.05136925
O    0.67262983   0.55857950  -3.88931822
H    0.46750371   0.25233396  -4.77270307
H    0.72903627  -0.24049297  -3.36535893
O    3.15890468   1.24067050  -2.91230225
H    3.67929921   1.73685641  -3.54414157
H    2.32271633   1.09234755  -3.35391428
O   -4.13017670  -0.20753912   1.40315201
H   -5.05195651  -0.28541175   1.64909851
H   -3.67447681  -0.81657874   1.98422016
O    0.16725446   0.99611218   2.19495474
H    0.02156578   0.31382924   2.85031469
H    1.11665011   1.11737634   2.18173592
O    2.74210814  -1.32985359   0.99358168
H    3.11130709  -1.31458725   0.11058059
H    2.88362998  -0.44429075   1.32821861
O   -2.89901944   1.50844004  -0.27079485
H   -3.36606342   0.91301979   0.31535914
H   -2.43675365   2.10812575   0.31479822
O    3.57236842  -1.19135645  -1.64685423
H    4.35539578  -1.62615326  -1.98456970
H    3.57372229  -0.33243906  -2.06933609
O   -0.24564897  -1.16137519   3.87486224
H    0.10419213  -1.15563203   4.76582244
H    0.27375609  -1.82253330   3.41734701
O    0.87873421  -1.47143989  -2.14853428
H    1.81343689  -1.55491791  -1.95987010
H    0.51599728  -1.03679543  -1.37669364
O   -2.73196766  -1.98010898   2.99754970
H   -1.93886722  -1.64442919   3.41533269
H   -3.10772172  -2.57934723   3.64249485
O   -1.22605758  -2.76248142   0.82245233
H   -1.86306748  -2.62135358   1.52283306
H   -0.41683649  -2.99565190   1.27745191
O   -0.53972907  -0.30467368  -0.12440574
H   -0.83721595  -1.14994427   0.21212217
H   -0.20933152   0.15751420   0.64595240
O   -2.84141685  -0.36269773  -2.11173792
H   -2.41376659  -1.21748114  -2.05984923
H   -3.71036760  -0.55024084  -2.46668019
O    2.47777323   2.44569903  -0.51792834
H    2.75027352   2.08311230  -1.36084370
H    1.68495873   2.94410205  -0.71609858
O   -1.59584285  -2.72819584  -1.93749122
H   -0.68166919  -2.56181967  -2.16735497
H   -1.56642991  -3.00535464  -1.02176761
H   -2.24198108   0.90408283  -1.47373430
