61
Energy:  -1423.31917599
O   -1.19973821   1.66852329  -2.22430933
H   -0.76255316   2.45497439  -1.89781930
H   -0.68359459   1.40590785  -2.98645153
O    2.65873748   1.21361791   2.01565965
H    3.36431558   1.68366391   2.46001104
H    2.59669682   1.63048066   1.15623645
O    0.01514551   3.82827632  -1.06523736
H    0.07488639   4.73529292  -1.36521029
H   -0.52689802   3.87124650  -0.27747203
O    1.76681106  -3.96372425   0.07454372
H    2.35922423  -3.31874510   0.46091192
H    2.31520627  -4.73381286  -0.07531646
O   -1.60693883   3.48756312   1.09705957
H   -1.07033785   2.89510790   1.62364104
H   -2.05384497   4.04031585   1.73812990
O    0.37310351   0.67328100  -4.24144026
H    0.13230425   0.71690529  -5.16682909
H    0.20530982  -0.23559161  -3.99238665
O    2.74552274   1.16776801  -2.88485484
H    3.49842959   1.28823956  -3.46351685
H    1.99545794   1.10711859  -3.47642589
O   -3.16774367  -0.28518656   1.85503528
H   -2.54764327  -0.43587672   2.56847751
H   -3.26719345  -1.14132581   1.43866145
O   -0.06737148   1.55896324   2.26859259
H   -0.40917313   0.94661862   2.92008131
H    0.88385627   1.48805916   2.34840630
O    2.64031946  -1.44650212   1.23035282
H    2.46673318  -1.30178210   0.30021532
H    2.81808787  -0.57335955   1.57999877
O   -2.84805070   1.40222851  -0.19978452
H   -3.05691966   0.83448748   0.54202120
H   -2.54637261   2.21801818   0.19985205
O    1.83114252  -0.90479571  -1.32281715
H    2.28380277  -0.21985607  -1.81494339
H    1.14354271  -0.44184415  -0.84415839
O    0.89534807  -2.21268869   3.22881300
H    1.32739741  -2.87362823   3.76985286
H    1.56172989  -1.94892143   2.59431008
O   -0.15049714  -1.72444390  -2.99730002
H   -0.07151022  -2.63421494  -3.28419647
H    0.58907454  -1.59496433  -2.40358239
O   -1.13607781  -0.46010798   3.78864955
H   -1.38358911  -0.47072055   4.71323453
H   -0.42317033  -1.09554688   3.72374828
O   -0.51028711  -2.70719561   0.91701858
H   -0.20579160  -2.63983470   1.82199198
H    0.16304306  -3.22449039   0.47513121
O   -0.28951648  -0.06835128   0.09108402
H   -0.40168015  -0.94932138   0.44821544
H   -0.20581375   0.49393343   0.86118896
O   -2.41291053  -0.62996483  -1.81511439
H   -2.77862033  -1.27564275  -1.21047548
H   -1.69479307  -1.08896349  -2.25084298
O    2.25453354   2.33550040  -0.41760826
H    2.54189294   2.02840121  -1.27746087
H    1.52588371   2.92717587  -0.60528192
O   -3.10275937  -2.45634055   0.13076922
H   -2.22731431  -2.72818182   0.40632343
H   -3.62233800  -3.25988064   0.15512535
H   -2.12121039   0.77154120  -1.33711669
