61
Energy:  -1422.97471408
O   -1.52559204   0.77527845  -3.70163161
H   -2.01734617   1.31829779  -3.08556366
H   -1.83356425   1.05234268  -4.56454550
O    1.56176854   1.41450046   2.38599076
H    1.66634674   2.28223732   1.99569859
H    1.07150297   0.91512083   1.73292759
O    1.30451098   3.42030053   0.41037807
H    1.47074503   4.35005855   0.25498143
H    0.35409485   3.33131302   0.33951027
O    0.02131938   0.34331785   0.44852838
H    0.68231495   0.45851025  -0.23414827
H   -0.53893174   1.11573652   0.37289815
O   -2.70409295   1.48751827   2.48558356
H   -3.42325595   1.81546242   3.02548084
H   -2.00407194   1.29511177   3.10942823
O    1.14836042   0.03698218  -3.57972177
H    1.51909786   0.53140651  -2.84874285
H    0.28174454   0.42063791  -3.71394935
O    0.96065645  -2.60864662  -3.11242828
H    1.11442614  -1.69639460  -3.35815779
H    1.30094894  -3.11626537  -3.84914809
O   -3.11384780   1.90907564  -1.74200720
H   -3.49467726   1.04841554  -1.56746507
H   -3.86463473   2.46698817  -1.94519297
O   -1.40322166   2.63482158   0.31873965
H   -1.99229090   2.49703207  -0.42304423
H   -1.93753100   2.44056815   1.08881171
O    1.93902007  -2.40843081  -0.53642396
H    2.65405151  -1.77330279  -0.57610107
H    1.73700791  -2.59990177  -1.45226336
O   -2.60990744  -0.90381275   1.11870126
H   -3.15449741  -0.84239781   0.33391987
H   -2.77938256  -0.08968399   1.59273120
O    2.02037566  -2.34902147   2.25855799
H    2.14420279  -2.61833635   1.34841065
H    2.72361293  -1.72017549   2.42055158
O   -0.54417460   0.68152578   3.98112408
H   -0.36177492   0.70299208   4.92053954
H    0.24253370   1.04594927   3.57551661
O   -0.75005516  -2.42343797   0.04339573
H    0.19726344  -2.47626934  -0.08320664
H   -1.09488294  -2.19187600  -0.81898743
O   -0.55691942  -1.68825546   2.55367808
H    0.34828679  -1.99922101   2.56525329
H   -0.56572542  -0.95238754   3.16576688
O    3.77674679  -0.19978571   2.41240346
H    3.07409712   0.44375484   2.50389586
H    4.36980010  -0.01267016   3.14007605
O    3.92882571  -0.46918193  -0.30934799
H    4.82643494  -0.60102920  -0.61454599
H    4.00893033  -0.37976296   0.64029371
O   -1.58918132  -1.69516008  -2.47573367
H   -1.52805897  -0.86311817  -2.94499072
H   -0.84735642  -2.20730312  -2.79766094
O    1.96587956   1.21297355  -1.23482476
H    2.76412793   0.77776660  -0.93544823
H    1.95946737   2.04930077  -0.76926327
O   -3.88195217  -0.71751141  -1.29845419
H   -3.21391540  -1.18466950  -1.80017329
H   -4.69421955  -1.18908608  -1.48303716
H   -1.22426368  -1.63953429   1.21773068
