61
Energy:  -1422.49395640
O   -1.44668702   1.45110522  -2.14091041
H   -1.14179537   2.24681726  -1.70488831
H   -0.97308032   1.43668286  -2.97260780
O    3.34800107   1.24590645   1.32241558
H    4.10817549   1.75018332   1.61236649
H    2.96225410   1.77383220   0.62332650
O   -0.53763712   3.64559534  -0.80932810
H   -0.54412186   4.54723877  -1.13062070
H   -1.05033712   3.67497835  -0.00154892
O    1.67304062  -3.08556527   2.23251170
H    2.20045222  -2.53631502   1.65251773
H    2.15384507  -3.91167802   2.28346907
O   -2.07025346   3.62430572   1.43547725
H   -2.10750384   2.77164320   1.86884878
H   -2.37362807   4.24411905   2.09882265
O   -0.00973822   1.04358530  -4.45229591
H   -0.30105294   1.23343776  -5.34410510
H   -0.01407777   0.08800981  -4.39672173
O    2.35237564   1.42529404  -3.08990618
H    3.08757341   1.65000457  -3.66018792
H    1.59244689   1.41260728  -3.67178176
O   -1.90447208   0.99552406   2.27206863
H   -2.09961921   0.23855525   2.82447035
H   -0.94919454   1.05599342   2.27655329
O    0.81627180   0.75702749   2.24658283
H    0.92491231   0.11477072   2.94796384
H    1.70795775   1.03064537   2.03149853
O    3.04491851  -1.42933216   0.60968126
H    2.79533652  -1.36859069  -0.31240938
H    3.28482108  -0.53513771   0.85277568
O   -2.96525991   0.51436438  -0.20639951
H   -3.88994368   0.71944098  -0.06806887
H   -2.55998367   0.64314903   0.65115371
O    1.81107816  -0.97677574  -1.83118061
H    2.12384262  -0.15105591  -2.20077093
H    1.13761149  -0.71826912  -1.20201543
O    0.89183618  -1.26910164   4.12214603
H    1.46183167  -1.27426998   4.89111305
H    1.24573967  -1.95539232   3.55647009
O    0.00022840  -1.60921373  -3.74041496
H    0.16763093  -2.44523717  -4.17547017
H    0.70643060  -1.52651689  -3.09957838
O   -1.81518518  -1.43573835   3.63387649
H   -0.92296506  -1.37088635   3.97441918
H   -2.32009392  -1.81335334   4.35408891
O   -0.89880731  -2.63317603   1.31572808
H   -1.30478804  -2.29363774   2.11330268
H   -0.03553529  -2.93684161   1.59640669
O   -0.15238258  -0.39377682  -0.06543104
H   -0.42634319  -1.21450284   0.34394194
H    0.26843555   0.09754952   0.64007755
O   -2.18620785  -1.05172974  -2.17211492
H   -2.45001134  -1.83689545  -1.69237085
H   -1.48882657  -1.35017610  -2.75591366
O    2.00563629   2.55524625  -0.60530797
H    2.14264993   2.26599281  -1.50741193
H    1.15103141   2.98618085  -0.61863912
O   -2.70804139  -3.21346201  -0.66121874
H   -2.10097042  -3.16116683   0.07699661
H   -3.13543276  -4.06402640  -0.56067686
H   -2.11179688   0.26465341  -1.45723809
