61
Energy:  -1429.65395085
O   -1.00460579   1.81501890  -2.17986062
H   -0.71444309   2.63478741  -1.77983933
H   -0.26631996   1.53833856  -2.72264407
O    2.81269261   2.06769041   1.92250899
H    3.50897356   2.44831742   2.45781056
H    2.70333158   2.68340186   1.19782186
O   -0.24240816   4.02497035  -0.77215040
H   -0.45757456   4.94167009  -0.94418780
H   -0.61731103   3.84831090   0.09067700
O    2.24614911  -2.21595579   1.32608965
H    2.74185112  -1.51420898   0.90411480
H    1.73601665  -2.60884713   0.61782903
O   -1.39984796   3.10161579   1.55045633
H   -0.82805688   2.47270390   1.99063430
H   -1.87447198   3.53276871   2.26113984
O    1.02783674   0.76887494  -3.69824414
H    0.95192720   0.91555063  -4.64108868
H    0.81705036  -0.15753224  -3.58175087
O    3.20994998   1.68498615  -2.27733301
H    2.50419788   1.36732970  -2.84057381
H    3.95506659   1.79879231  -2.86731711
O   -3.09392087  -0.91095128   1.36938764
H   -3.41257933  -1.54158793   0.72364306
H   -2.63190138  -1.44327479   2.01699981
O    0.28328805   1.12863777   2.43756320
H    0.39121152   0.30617081   2.91519535
H    1.16946753   1.48365655   2.36771008
O    2.98600190   0.11556548  -0.01473429
H    3.23343102   0.58908889  -0.80895483
H    3.07848460   0.75962669   0.68730841
O   -2.50520393   1.23467330  -0.11665564
H   -2.77968703   0.53022385   0.47040641
H   -2.22966811   1.94067372   0.46804538
O    0.37185776  -2.63418999  -0.66586533
H    0.21394998  -1.74283229  -0.35477302
H   -0.30144479  -3.16131261  -0.23570574
O    0.75565109  -1.41297394   3.42835230
H    1.27442903  -1.54806698   4.22135367
H    1.31730220  -1.72377926   2.71829602
O    0.07521533  -1.77663525  -3.22549229
H    0.08084318  -2.50066490  -3.85157634
H    0.30258014  -2.18142464  -2.38842441
O   -1.64140784  -2.65227090   2.97050633
H   -0.80255714  -2.24019487   3.17727841
H   -2.01335595  -2.88010639   3.82254943
O   -1.58564359  -4.07038719   0.62180702
H   -1.59696934  -3.67074961   1.49151581
H   -1.42511919  -4.99951133   0.78670730
O    0.25923129   0.02642295  -0.07060103
H    0.10976423   0.36518600   0.81208297
H    1.20858574   0.06742319  -0.18582675
O   -2.06322775  -0.57681972  -1.97054557
H   -2.61317798  -1.27603886  -1.61716305
H   -1.40273733  -1.03182257  -2.49299811
O    2.42378333   3.49266045  -0.31493064
H    2.72060106   2.99091554  -1.07412964
H    1.52721717   3.74830721  -0.53183086
O   -3.46823347  -2.61893898  -0.76262319
H   -2.88081920  -3.26275027  -0.36679070
H   -4.24366784  -3.12225018  -1.01083924
H   -1.80447226   0.82170456  -1.37480101
