61
Energy:  -1426.81777472
O   -0.94034183   1.51941150  -2.24604955
H   -0.60490992   2.32119697  -1.84497930
H   -0.43116422   1.42242340  -3.05076274
O    2.93151253   1.93822761   1.82147679
H    3.60161989   2.48129251   2.23652918
H    2.89776510   2.24846633   0.91657630
O    0.04248671   3.70516827  -0.92387632
H   -0.19415798   4.57607979  -1.24285008
H   -0.47133949   3.59479596  -0.12385604
O    1.73337827  -2.59294498   2.64657985
H    2.27097474  -1.99069998   2.13226201
H    2.32127468  -3.31789784   2.85883682
O   -1.49645124   2.98644623   1.22334306
H   -0.90580333   2.42870976   1.72960081
H   -2.00372836   3.45971821   1.88282422
O    0.68224095   1.34547733  -4.40261510
H    0.59146808   1.49410002  -5.34383954
H    1.22967801   0.56320137  -4.33487423
O    2.06238238  -0.97590366  -3.85316498
H    2.89717156  -1.37786677  -4.09354914
H    2.16896209  -0.73310397  -2.93342539
O   -3.59481176  -0.82662268   1.22927330
H   -3.19532496  -1.06916950   2.06462543
H   -3.55828273  -1.62638173   0.70459918
O    0.31294309   1.25872847   2.31971858
H    0.30736401   0.62400151   3.03618379
H    1.22740126   1.53252667   2.24877749
O    3.10516915  -0.76751067   1.22189327
H    2.90880308  -0.67543478   0.28958740
H    3.19460123   0.13146698   1.53823634
O   -2.74603054   1.13725606  -0.38931933
H   -2.40689810   1.82027921   0.18921366
H   -3.14224070   0.49702202   0.20173881
O    2.16452460  -0.11295752  -1.28128793
H    2.34336058   0.82552413  -1.22211245
H    1.30528389  -0.21972734  -0.87319793
O    0.32330297  -0.79215220   4.16862106
H    0.70044246  -0.72366659   5.04572275
H    0.86692635  -1.44237163   3.72373887
O   -0.53780112  -1.88166591  -3.91057351
H   -0.65914441  -2.46438697  -4.66020264
H    0.39324968  -1.66007353  -3.92709843
O   -2.13515158  -1.78161888   3.40386555
H   -1.36566664  -1.37476915   3.80210929
H   -2.59788181  -2.18822449   4.13652131
O   -0.67889531  -2.72505807   1.27552607
H   -1.22631198  -2.49724852   2.02697111
H    0.19014830  -2.87404781   1.64808091
O   -0.15774219  -0.29488118   0.11071599
H   -0.34932394  -1.16776881   0.45363794
H    0.00807330   0.23753432   0.88870752
O   -2.19504580  -0.78741638  -2.08471574
H   -2.48231359  -1.54109157  -1.56927150
H   -1.64234174  -1.16226949  -2.77045273
O    2.56498169   2.59405458  -0.82860006
H    3.12002997   3.06320070  -1.45154081
H    1.71475491   3.02953764  -0.88943405
O   -2.82561161  -2.89795196  -0.44943268
H   -2.03071494  -3.04974819   0.06177082
H   -3.14261168  -3.77473219  -0.66622577
H   -1.92659776   0.56993880  -1.52569480
