61
Energy:  -1427.52317301
O   -1.14245396   1.68637543  -2.38378233
H   -0.72882882   2.44489368  -1.97171904
H   -0.62951584   1.53509007  -3.17765831
O    2.90139182   0.94444079   1.60489791
H    3.71195904   1.26663735   1.99910853
H    2.81116097   1.44818123   0.79598764
O    0.01924194   3.73138485  -1.00336804
H    0.01462627   4.67150949  -1.18330197
H   -0.50351524   3.63687065  -0.20711189
O    1.97579166  -2.19032524   3.75372685
H    2.22585173  -2.13909399   2.83118842
H    2.56010990  -2.85169939   4.12438610
O   -1.55050408   3.02719819   1.12695471
H   -0.93394662   2.50865638   1.64387166
H   -2.03097643   3.54379928   1.77387161
O    0.43975768   0.98767803  -4.52043167
H    0.22250221   1.15126748  -5.43818458
H    0.29590797   0.04860499  -4.40346614
O    2.79142899   1.09687902  -3.07078069
H    3.56471911   1.23363050  -3.61809528
H    2.05317802   1.17159637  -3.67545802
O   -3.37798882  -0.92459328   1.15494225
H   -3.36066281  -1.71005688   0.60815291
H   -2.94592841  -1.18818050   1.96739374
O    0.28151081   1.34575579   2.27657418
H    0.14145909   0.80922757   3.05680159
H    1.22959185   1.33534443   2.14517484
O    2.31579032  -1.70090866   1.05645897
H    2.38128799  -1.74743341   0.10263648
H    2.57308383  -0.80430100   1.27123000
O   -2.84666453   1.16543929  -0.45429562
H   -3.13804976   0.48442553   0.15196072
H   -2.49758606   1.85552737   0.10975626
O    1.77634645  -1.04568745  -1.63170462
H    2.28538983  -0.35886886  -2.06227043
H    1.15255502  -0.57257945  -1.08099152
O    0.05888848  -0.38604990   4.40853023
H    0.16513506  -0.11736264   5.32108196
H    0.77547238  -1.00172810   4.25464805
O    0.00720333  -1.56049030  -3.61727616
H    0.11531724  -2.42935673  -4.00407632
H    0.67440406  -1.51804695  -2.93224069
O   -1.81957486  -1.96604543   3.21682397
H   -1.23837986  -1.39465300   3.71877506
H   -2.20682326  -2.54834934   3.87042375
O   -0.38842430  -2.55206320   0.93283947
H   -0.78699696  -2.44890795   1.79697526
H    0.55267537  -2.48108167   1.09260454
O   -0.20001973  -0.02702193  -0.05739191
H   -0.36938451  -0.90841732   0.27530852
H   -0.01032712   0.49214192   0.72409223
O   -2.16685111  -0.72318117  -2.16204192
H   -2.46131361  -1.49074134  -1.67176132
H   -1.48058437  -1.05644266  -2.74014796
O    2.38464817   2.33187518  -0.63984768
H    2.59213453   2.00175009  -1.51403226
H    1.61697170   2.88872205  -0.76956371
O   -2.64577994  -2.93175622  -0.60516385
H   -1.82129661  -3.00724221  -0.12478801
H   -2.94660584  -3.83451482  -0.70890646
H   -2.01997373   0.68086530  -1.58130920
