61
Energy:  -1423.73344031
O   -0.67589579   1.94822352  -2.06560657
H   -0.28395049   2.74435830  -1.70674709
H   -0.01244913   1.60211259  -2.66249651
O    3.34058310   1.42775651   1.52439669
H    4.12763157   1.71689036   1.98611975
H    3.25962812   2.03203045   0.78647316
O    0.36745649   4.12975686  -0.78310018
H    0.12377105   5.03176398  -0.99102424
H   -0.05741291   3.95381858   0.05640178
O    1.62069729  -2.79558967   2.36792971
H    2.18981182  -2.27428085   1.80173398
H    2.12583974  -3.58746906   2.55229343
O   -0.94375335   3.23935990   1.45220179
H   -0.36479954   2.57686336   1.82921991
H   -1.31701893   3.69074563   2.20927219
O   -0.96619449  -1.06204696  -4.30936338
H   -1.37758303  -1.40001353  -5.10483174
H   -0.54132419  -1.82446762  -3.91638524
O    1.07359094   0.68634115  -3.74631958
H    1.58088958   0.98209705  -4.50223517
H    0.42034296   0.09096107  -4.11377229
O   -3.46887965  -0.34219481   1.27477346
H   -3.08971833  -0.68574000   2.08375136
H   -3.52281890  -1.10103683   0.69384213
O    0.70388220   1.20314394   2.22081262
H    0.65064403   0.54879792   2.91739631
H    1.64201225   1.31181118   2.06481492
O    3.09595333  -1.22071411   0.76651368
H    2.82465656  -1.18308358  -0.15066344
H    3.29445065  -0.31275437   0.99551098
O   -2.49176191   1.67712681  -0.19630283
H   -2.92404448   1.03153440   0.36278041
H   -2.04369836   2.26205875   0.41470088
O    1.76235521  -1.00711101  -1.64132732
H    1.75860896  -0.37548647  -2.36054095
H    1.07364130  -0.70224077  -1.05059968
O    0.51011584  -0.89237710   4.00628723
H    0.94541589  -0.88792367   4.85876942
H    0.95461953  -1.58212926   3.51344823
O    0.40972514  -2.96194171  -2.97794827
H    0.89982230  -3.78202972  -3.03704379
H    0.96676695  -2.38672686  -2.45348270
O   -2.09452257  -1.56460100   3.37425882
H   -1.25998987  -1.26089806   3.73140242
H   -2.56498573  -1.91674466   4.12983218
O   -0.86833151  -2.60834815   1.15440732
H   -1.35120426  -2.36674152   1.94478191
H   -0.00160996  -2.86281161   1.47106797
O   -0.18266911  -0.20491244   0.05089877
H   -0.45859919  -1.04149478   0.42536428
H    0.15692147   0.29109821   0.79580381
O   -2.28352773  -0.13089351  -2.09124307
H   -2.56313239  -0.91929074  -1.62596587
H   -1.91435138  -0.45522396  -2.91267501
O    2.95025624   3.17966077  -0.50868282
H    3.52587981   3.70382085  -1.06558996
H    2.08263617   3.56535236  -0.62996458
O   -2.97409042  -2.33545870  -0.60886751
H   -2.21422034  -2.63906682  -0.11222737
H   -3.42928680  -3.13751238  -0.86526172
H   -1.79119001   1.11048373  -1.38174453
