73
Energy:   -459.35496651
C   -2.00717516   1.67612284  -3.05875924
H   -2.70038871   1.10232159  -3.63764376
H   -2.47166348   2.58843713  -2.74758031
H   -1.71125382   1.11464717  -2.19732164
C   -0.76685319   1.99702289  -3.91329102
N    0.15662290   2.23594757  -4.54952877
C   -3.91203430   1.01696890   0.18166187
H   -4.28939438   0.53265436  -0.69465941
H   -4.57728794   0.84079909   1.00099140
H   -2.94460657   0.62512671   0.41712392
C   -3.80382249   2.53153515  -0.07520242
N   -3.72325388   3.65919858  -0.26644955
C   -1.17129879  -1.79726054   3.13915806
H   -1.25409492  -2.78825260   3.53410073
H   -0.50614430  -1.22404170   3.75062249
H   -0.78880429  -1.84196854   2.14086039
C   -2.55996814  -1.13163210   3.12748652
N   -3.59389560  -0.63604148   3.11879653
C    2.52853020   2.64954431   1.50773516
H    2.48145341   2.67261770   2.57645008
H    1.60823079   2.26700802   1.11835866
H    2.68860275   3.64015721   1.13630286
C    3.69044607   1.74115850   1.06457972
N    4.55554524   1.06482397   0.73463035
C   -0.28721353   4.09997307  -0.90266855
H    0.40510118   4.48447452  -1.62222337
H   -1.28712521   4.28896106  -1.23336368
H   -0.14056535   3.04559271  -0.79461556
C   -0.05556719   4.79209776   0.45339317
N    0.11690404   5.30741605   1.46304276
C    2.86410417  -2.01916142  -0.56498909
H    3.40361605  -2.74296425   0.00941198
H    1.81882293  -2.24555829  -0.53288467
H    3.03054419  -1.04408784  -0.15703282
C    3.35248561  -2.05496128  -2.02505824
N    3.71610779  -2.08161591  -3.11214609
C    0.27501202  -4.88235124   0.62780797
H    0.47034728  -3.84850009   0.43313876
H    0.18266202  -5.40860113  -0.29924738
H    1.08216412  -5.29726918   1.19459513
C   -1.03490774  -5.01574619   1.42650441
N   -2.01020254  -5.11506479   2.02117022
C   -2.62747643  -2.53063933  -0.50861203
H   -2.90201651  -3.56468534  -0.49197547
H   -3.08160727  -2.02767582   0.31945318
H   -1.56333947  -2.44298188  -0.43912975
C   -3.11029763  -1.89243759  -1.82435602
N   -3.46977995  -1.41726739  -2.80398722
C    0.18494804  -1.41643509  -3.58619582
H   -0.69772121  -1.17757136  -4.14183895
H    1.03665938  -1.36948747  -4.23217013
H    0.30419954  -0.71482187  -2.78718576
C    0.05787105  -2.83759084  -3.00674112
N   -0.03674354  -3.89570590  -2.57531075
C   -1.45358615   2.41943368   2.73965095
H   -1.16410793   2.22563812   1.72794653
H   -1.53709417   3.47542156   2.89069765
H   -2.39756694   1.95534634   2.93566702
C   -0.39140069   1.84645909   3.69623976
N    0.39944467   1.41985347   4.40846362
C    2.47985167  -0.90384976   3.00089147
H    1.78907866  -0.48158624   2.30130134
H    3.47768656  -0.63523309   2.72327713
H    2.26910223  -0.52907858   3.98070284
C    2.34123352  -2.43759385   2.99713947
N    2.23802601  -3.57953604   2.99434593
C    2.79044826   1.42772942  -2.48419827
H    3.67383775   0.88781410  -2.21398609
H    2.63014804   1.34447426  -3.53884111
H    1.94982550   1.02031629  -1.96240617
C    2.95960892   2.91100208  -2.10619443
N    3.08555672   4.01536599  -1.82475339
Cl  -0.06456984   0.10579476   0.01884802
