73
Energy:   -459.71239268
C   -2.68058155   1.60936101  -2.61840667
H   -1.98201821   1.05412751  -2.02796175
H   -2.31217485   2.60300130  -2.76623956
H   -2.80565367   1.13051628  -3.56707088
C   -4.03621286   1.66756149  -1.89006853
N   -5.04554199   1.71089440  -1.34778767
C    0.72924442   3.42308657  -1.38627848
H    0.14000930   4.23603330  -1.75617004
H    0.19506423   2.92112205  -0.60680286
H    0.92835627   2.73593405  -2.18193856
C    2.05955283   3.96449160  -0.83061660
N    3.05002792   4.36759225  -0.41690107
C   -1.27302830   0.71449277   3.72452765
H   -1.13655722   0.32808485   2.73611238
H   -1.48184165   1.76260676   3.67205740
H   -2.09175053   0.21079448   4.19450747
C    0.00944077   0.48707925   4.54620653
N    0.96429728   0.31775956   5.15798381
C    2.38465291   2.12892375   2.28067669
H    2.67055877   1.67818918   3.20803658
H    3.20838849   2.68629774   1.88609714
H    2.10423599   1.36602065   1.58480004
C    1.19118734   3.07345453   2.51541385
N    0.30259798   3.77670063   2.69018634
C   -2.55351674   2.98518008   1.09542560
H   -2.40771033   3.44583200   2.05011953
H   -1.78836714   2.25554286   0.93088169
H   -3.51143795   2.50902397   1.07173125
C   -2.48592187   4.05762860  -0.00769955
N   -2.43559441   4.85611528  -0.82902636
C    0.39282556   0.05813763  -3.98065136
H    0.95301495   0.78878038  -4.52585702
H    0.45909627   0.26657573  -2.93324464
H   -0.63177726   0.09273363  -4.28706817
C    0.96585449  -1.34323167  -4.26243485
N    1.39250058  -2.38661481  -4.47223546
C    2.72098681  -2.60293428  -1.29569593
H    1.97023980  -1.84150299  -1.33444512
H    2.88191362  -2.99546131  -2.27800148
H    3.63358245  -2.18546035  -0.92450353
C    2.25643062  -3.73473306  -0.36037829
N    1.91054743  -4.57740869   0.33600820
C   -3.61726954  -0.88795998   0.54596174
H   -3.20108335  -0.74095111   1.52068100
H   -4.54858443  -0.36615164   0.47338269
H   -2.93941055  -0.51209605  -0.19169170
C   -3.85147990  -2.39152256   0.30922333
N   -4.02586016  -3.51099325   0.13296083
C   -1.11312546  -3.24507781  -1.91068405
H   -1.70006034  -4.01032074  -1.44720709
H   -0.63135416  -2.65892988  -1.15621330
H   -0.37337335  -3.69466276  -2.53960319
C   -2.02646019  -2.34024704  -2.75844636
N   -2.70647941  -1.66655940  -3.38964394
C    2.26913457  -1.77742361   2.74766642
H    2.06172031  -2.81391831   2.58165965
H    1.47783987  -1.18522312   2.33772697
H    2.34502062  -1.59277622   3.79887798
C    3.59731209  -1.40372564   2.06363842
N    4.58620062  -1.12549051   1.55434848
C   -0.87463773  -3.50541472   1.88672085
H   -0.46864349  -2.70428845   1.30511485
H   -1.49302798  -4.11926170   1.26568584
H   -0.07679784  -4.09422363   2.28878386
C   -1.71724080  -2.92751121   3.03895676
N   -2.34459709  -2.49723578   3.89684878
C    3.84080877   0.90170143  -1.02364162
H    4.17863998   1.76183756  -0.48425671
H    4.58639070   0.13567646  -0.97660514
H    2.93193887   0.54201434  -0.58834886
C    3.58959653   1.28393291  -2.49414885
N    3.40255761   1.56852162  -3.58900832
Cl   0.02740473  -0.02404814   0.00797298
