73
Energy:   -462.51079622
C   -2.93022952  -0.37106659  -2.33537907
H   -3.21448707  -0.52743061  -1.31574770
H   -1.86332475  -0.33085142  -2.40606167
H   -3.29731120  -1.17720180  -2.93562582
C   -3.52833435   0.95633538  -2.83725019
N   -3.97365057   1.94464649  -3.21091605
C   -0.35802167   2.53939987  -3.05053717
H   -0.76044685   3.50036183  -2.80659812
H   -0.31499332   1.93620301  -2.16781342
H   -0.98397449   2.06450892  -3.77687093
C    1.06014776   2.70797383  -3.62671273
N    2.11603936   2.83348481  -4.05570162
C   -2.07722436   0.62527915   3.44540089
H   -1.71724240   0.13598389   4.32625463
H   -1.51910403   0.28839597   2.59692548
H   -3.11246610   0.39325510   3.30633802
C   -1.90863084   2.14830238   3.59894713
N   -1.78310530   3.28226241   3.71326929
C    0.95811852   3.41561426   1.61160680
H    0.53852590   3.91198333   2.46158324
H    2.01834073   3.33640850   1.73224846
H    0.53484684   2.43668740   1.52533759
C    0.64528506   4.22413528   0.33880320
N    0.41236633   4.82611593  -0.60885693
C   -2.64895677   2.93683957   0.03510001
H   -2.97811917   3.40847531  -0.86718156
H   -1.75259313   2.38511415  -0.15733272
H   -2.45618764   3.68274635   0.77763771
C   -3.74274796   1.97855899   0.54197194
N   -4.55712522   1.26507554   0.91936113
C    2.05844731  -0.71918388  -3.20825977
H    2.54507396  -1.67210926  -3.20297531
H    1.84675106  -0.42122630  -2.20262312
H    2.69787167   0.00528696  -3.66780039
C    0.74245764  -0.81921650  -4.00183690
N   -0.23735648  -0.89369533  -4.59269114
C    3.59435476  -1.73963695   0.22306772
H    4.35404363  -0.98687211   0.25650546
H    2.64323668  -1.27926967   0.05473631
H    3.80508675  -2.42396555  -0.57203321
C    3.56657311  -2.50072009   1.56156712
N    3.54588842  -3.06738108   2.55814076
C   -3.47509445  -1.92606391   1.29295336
H   -4.39362987  -1.49073800   0.95876149
H   -2.65441686  -1.32290658   0.96494633
H   -3.47374007  -1.97947447   2.36161821
C   -3.33620135  -3.34383475   0.70794518
N   -3.23278914  -4.39942958   0.27238000
C   -0.73785135  -3.37212274  -1.92425224
H   -0.93018686  -3.03806310  -2.92240624
H   -0.95813398  -2.58344476  -1.23551304
H   -1.35491454  -4.21866982  -1.70632986
C    0.74412268  -3.76963136  -1.79257134
N    1.84751971  -4.06559460  -1.69452892
C    1.63342035  -0.18028839   3.52104533
H    0.96534972  -0.43645098   2.72545590
H    1.11375081   0.40904771   4.24735492
H    1.99838910  -1.07423073   3.98209196
C    2.81759826   0.62680098   2.95719301
N    3.69927253   1.22771571   2.53737933
C    0.18128833  -3.58556452   1.76254666
H    0.49965661  -2.77715198   1.13803807
H   -0.49139777  -4.21402892   1.21717980
H    1.03294546  -4.15608225   2.06928554
C   -0.53450978  -3.02343528   3.00482029
N   -1.06745401  -2.60490450   3.92974948
C    3.34189809   2.15133933  -0.83014968
H    3.11056379   2.99010716  -1.45292825
H    3.72033396   2.49787175   0.10878625
H    2.45625701   1.57363983  -0.66643573
C    4.40484478   1.27684692  -1.52080686
N    5.19625691   0.62574756  -2.03503252
Cl  -0.09097038  -0.05661323   0.04342624
