73
Energy:   -458.77789248
C   -0.45395673  -0.02916124  -3.87449510
H   -0.61224141   0.84648187  -4.46871331
H    0.22835676  -0.68257964  -4.37688118
H   -0.04566511   0.25224000  -2.92633352
C   -1.79580360  -0.75400740  -3.66084817
N   -2.79486959  -1.29368832  -3.50177832
C    0.65961121   3.40454773  -1.99322971
H   -0.26033013   3.94193310  -2.09235124
H    1.36869058   4.00592244  -1.46365063
H    0.48646017   2.49774322  -1.45228297
C    1.21230389   3.07070452  -3.39132825
N    1.62380871   2.82214308  -4.43227616
C   -3.05531576   1.20147426   2.23172740
H   -3.41843129   1.97132782   1.58336578
H   -3.86367825   0.55720356   2.50806859
H   -2.30367259   0.63326795   1.72470352
C   -2.45106636   1.83852229   3.49689635
N   -2.00117521   2.31283350   4.43887214
C    0.42525867   3.35975788   1.80714761
H    0.34982177   3.48789125   2.86676608
H    1.25617266   3.92381567   1.43793246
H    0.56955825   2.32359413   1.58255595
C   -0.86974945   3.85482215   1.13672584
N   -1.83394186   4.22342000   0.63756637
C   -3.03895543   1.87198180  -1.47770074
H   -3.65396458   2.51876833  -0.88750490
H   -2.12426112   1.67726003  -0.95778070
H   -3.55398637   0.95021168  -1.65085407
C   -2.72901796   2.54800759  -2.82622878
N   -2.49825542   3.05133952  -3.83026921
C    3.11149117   0.14402240  -2.60025408
H    3.34706062   1.15946484  -2.84167457
H    2.26602363   0.12014377  -1.94488124
H    2.88247683  -0.39200858  -3.49754016
C    4.31890008  -0.51160553  -1.90461355
N    5.21787090  -0.99975032  -1.38667756
C    2.75833730  -2.81306128   0.33628788
H    3.77512716  -2.89634829   0.01363972
H    2.33130736  -1.91489495  -0.05848009
H    2.20229672  -3.65689440  -0.01537054
C    2.70980655  -2.77138940   1.87495881
N    2.67367321  -2.74036279   3.02056925
C   -3.64463394  -1.75245980  -0.25078901
H   -2.71598838  -1.24907189  -0.42142959
H   -4.08128775  -1.39666550   0.65895984
H   -4.31042562  -1.55857603  -1.06566914
C   -3.39449154  -3.26809029  -0.14173399
N   -3.20824916  -4.39654608  -0.06053757
C   -0.37850486  -3.51541244  -1.84234805
H   -0.25336817  -4.47111027  -1.37771633
H   -1.25946729  -3.52663544  -2.44953693
H   -0.47447983  -2.76215453  -1.08849766
C    0.84745360  -3.20789700  -2.72215491
N    1.76023539  -2.97893777  -3.37721112
C    0.48465109  -0.13544337   4.04901540
H    0.95161940  -1.06864011   4.28562609
H    0.20953945  -0.12632064   3.01502824
H   -0.39050155  -0.01151494   4.65204832
C    1.46808823   1.01617016   4.32872536
N    2.20030189   1.87359877   4.53698213
C   -0.81659492  -3.18192804   2.36407261
H   -0.35982915  -2.54387749   1.63664103
H   -1.10885998  -4.10044772   1.89952786
H   -0.11815802  -3.38550607   3.14870053
C   -2.05858222  -2.48526071   2.95035086
N   -2.98329822  -1.96656022   3.38686166
C    3.53865925   0.78151549   1.42881843
H    3.82817594   1.07935275   2.41490830
H    4.23155760   0.05555981   1.05763206
H    2.55753611   0.35558696   1.45850616
C    3.53679989   2.01070685   0.50108725
N    3.53541551   2.92589570  -0.18965078
Cl  -0.00938867  -0.12442437   0.02999800
