73
Energy:   -458.17083516
C   -3.09678250  -0.14381047  -2.31282910
H   -3.49979502  -1.10308332  -2.56238209
H   -2.06792511  -0.24954606  -2.03865481
H   -3.17547838   0.50707239  -3.15843986
C   -3.88426945   0.45222186  -1.13121589
N   -4.47058929   0.89599502  -0.25145115
C    0.36523147   2.46495415  -3.32726802
H    1.16043649   2.19049425  -3.98849485
H   -0.57314080   2.33537513  -3.82482792
H    0.39563496   1.84454266  -2.45602506
C    0.52752727   3.93939955  -2.91341921
N    0.64836387   5.03719117  -2.60528995
C   -2.05710785   1.56287507   2.57301609
H   -2.54034188   1.27094219   1.66408252
H   -0.99596420   1.51970038   2.44259679
H   -2.34511666   2.56208190   2.82507904
C   -2.47434902   0.60706688   3.70612707
N   -2.78500404  -0.10457577   4.54977971
C    1.91817332   3.41863118   0.30953777
H    1.98228495   4.27230563  -0.33235772
H    1.49458278   2.59755887  -0.23019402
H    2.89740602   3.15425500   0.65028350
C    1.02618958   3.75221315   1.51978075
N    0.36206714   4.00058009   2.42086166
C   -2.06801385   3.55251188  -0.43908930
H   -1.47407550   4.43510621  -0.32435193
H   -1.45647728   2.68836714  -0.28360303
H   -2.86207209   3.56124111   0.27805393
C   -2.66014739   3.51339462  -1.86016203
N   -3.10101773   3.48427005  -2.91821528
C    1.31099468  -1.00130331  -3.61331308
H    1.84472966  -0.16262098  -4.00908968
H    0.68658360  -0.67830944  -2.80666269
H    0.70531116  -1.43369622  -4.38213226
C    2.31323378  -2.05092792  -3.09813839
N    3.05944634  -2.83242116  -2.71456742
C    2.51304802  -3.10323418   0.58921853
H    1.95264418  -4.00907748   0.69068595
H    3.36448806  -3.27856062  -0.03464811
H    1.89573626  -2.34960279   0.14665214
C    2.98264176  -2.63182299   1.97805013
N    3.33227564  -2.28083592   3.01209838
C   -3.34288454  -1.93789369   1.38506451
H   -2.41501835  -1.47902095   1.11413957
H   -3.19455708  -2.56530619   2.23902680
H   -4.06056413  -1.17978501   1.61981188
C   -3.85887771  -2.78643371   0.20806371
N   -4.24305808  -3.41821032  -0.66826689
C   -0.75423926  -3.65001559  -1.28549819
H   -1.42917310  -4.37386184  -0.87879055
H   -0.75502795  -2.77557462  -0.66885286
H    0.23273535  -4.06190837  -1.31903241
C   -1.20221040  -3.27394104  -2.71009982
N   -1.53574528  -2.99393644  -3.77078048
C    1.90644478   0.78633974   3.43464956
H    1.29980679   1.57060983   3.83690689
H    2.06848275   0.04045527   4.18451565
H    1.40991647   0.34621144   2.59521772
C    3.26096845   1.36454990   2.98460663
N    4.26947289   1.79505365   2.64952922
C   -0.26211929  -2.25292358   3.36360666
H    0.66897526  -2.23830681   3.89062609
H   -1.06814527  -2.15765773   4.06084810
H   -0.29226668  -1.43861158   2.67014708
C   -0.39873505  -3.58307532   2.59964825
N   -0.50045170  -4.57343376   2.03084649
C    3.89453990   0.15160184  -0.45042298
H    2.98183640   0.15214657   0.10803223
H    4.67837960   0.56844171   0.14685328
H    4.14711899  -0.85259978  -0.72001899
C    3.71648202   0.99618117  -1.72579788
N    3.58390984   1.62500887  -2.67537247
Cl   0.04264142  -0.01102252   0.01171207
