73
Energy:   -458.77277958
C   -2.87702872  -1.84956867  -1.97396229
H   -2.17560369  -1.69068797  -1.18171231
H   -2.40509718  -2.39543850  -2.76402928
H   -3.71213521  -2.40721720  -1.60447026
C   -3.36385685  -0.48999420  -2.50889743
N   -3.72632252   0.52227080  -2.90718096
C    2.92479787  -0.25291633  -2.55958366
H    2.09483996   0.13427115  -2.00627008
H    2.61138455  -0.48722673  -3.55546007
H    3.70363775   0.47997445  -2.59391491
C    3.44945142  -1.52776215  -1.87321147
N    3.84007983  -2.47694281  -1.36217617
C    0.96846113  -0.19645987   3.85135075
H    1.63793441  -0.86072631   4.35677712
H    0.71892018  -0.60239230   2.89330729
H    0.07735769  -0.07839460   4.43177674
C    1.64659654   1.17390319   3.66740113
N    2.15149917   2.19420077   3.53044228
C   -1.82346697   3.20485999  -1.66481928
H   -1.50446774   2.31380464  -1.16565996
H   -1.39377724   3.23835819  -2.64417810
H   -2.89058514   3.20718451  -1.74325713
C   -1.36516613   4.43575787  -0.86079766
N   -1.02394032   5.35221728  -0.26216701
C    3.96691877   0.05426568   1.25149245
H    4.12725548   0.38245122   2.25721933
H    4.32975354  -0.94621746   1.14066140
H    2.92037438   0.08068326   1.03025493
C    4.72018586   0.98385173   0.28192633
N    5.28102746   1.67597079  -0.43995972
C    1.97936146   3.23375143   0.10564486
H    3.00068531   3.40846726   0.37261330
H    1.64900169   2.31420593   0.54176134
H    1.37351568   4.03805572   0.46750752
C    1.85685452   3.14815226  -1.42708631
N    1.76564253   3.08441980  -2.56827433
C   -1.89524763  -2.33500072   2.22213079
H   -1.12778591  -2.56440729   1.51271180
H   -1.77553681  -2.95101199   3.08879019
H   -1.82421599  -1.30522127   2.50392482
C   -3.27434783  -2.60034410   1.59024826
N   -4.30115062  -2.79790431   1.11978299
C    1.99978254  -3.29903588   1.42470174
H    1.70436095  -2.38146324   0.96028089
H    1.12879880  -3.84575650   1.72030787
H    2.56895870  -3.88253566   0.73154549
C    2.85934761  -2.99298151   2.66529781
N    3.49933288  -2.76511012   3.58897798
C   -1.17569818   2.92249128   2.31216990
H   -0.80436566   2.42321498   1.44168986
H   -0.36410129   3.39256624   2.82718362
H   -1.89023410   3.66367907   2.02065974
C   -1.84983585   1.89776123   3.24333408
N   -2.35176199   1.13480313   3.93662813
C   -3.99044818   0.67788880   0.73977038
H   -2.98506176   0.51483821   0.41187890
H   -4.66486722   0.15033815   0.09809416
H   -4.10060920   0.32205900   1.74284007
C   -4.30824487   2.18396990   0.69155248
N   -4.54485895   3.30531574   0.65565207
C    0.41184087  -3.51837725  -1.94799463
H    1.43810540  -3.82111912  -1.95334719
H    0.34969880  -2.47225988  -1.73194860
H   -0.02181587  -3.71088120  -2.90704789
C   -0.35163458  -4.31122191  -0.87091404
N   -0.92007675  -4.90153079  -0.06897858
C   -0.33559908   0.75700648  -3.87450025
H    0.48453871   1.30164564  -4.29359733
H   -0.24934211   0.74705128  -2.80802956
H   -1.25553600   1.22683947  -4.15355601
C   -0.31610848  -0.68874958  -4.40460355
N   -0.30159684  -1.76518069  -4.79928956
Cl   0.00122700  -0.11050844   0.05058482
