73
Energy:   -457.85125358
C   -1.61074086  -2.95407542  -1.99903967
H   -1.78092161  -2.90831837  -3.05442822
H   -1.04513965  -2.09940335  -1.69158232
H   -2.54989767  -2.96350386  -1.48640464
C   -0.82816556  -4.23645262  -1.66038847
N   -0.24550269  -5.19124073  -1.40824726
C    0.43019910   3.40879860  -1.91706223
H    0.30822698   2.35576461  -1.77165798
H    1.22405797   3.58316916  -2.61296602
H   -0.47833790   3.82340561  -2.30119846
C    0.77079914   4.07669414  -0.57188300
N    1.02439136   4.57397272   0.42966408
C    1.16004589   2.28340423   2.99956059
H    1.93475601   3.02145173   3.00277240
H    0.89396567   2.05001015   1.98979447
H    1.50831005   1.39861854   3.49023915
C   -0.07324316   2.83051151   3.74203734
N   -0.99148292   3.23785775   4.29484503
C   -2.27165149   3.03055368   1.01163906
H   -1.82367530   3.98153036   1.21129093
H   -1.53347131   2.26172138   1.10590466
H   -3.06152349   2.85437558   1.71161235
C   -2.84200577   3.02196667  -0.41882319
N   -3.26666046   3.01557326  -1.48386735
C   -2.16655638  -0.09564990   3.26636436
H   -1.87222986   0.02098198   2.24427381
H   -2.52115713   0.84040935   3.64445227
H   -2.94646365  -0.82527175   3.33190607
C   -0.95732096  -0.56062901   4.09891712
N   -0.05699022  -0.90682709   4.71879050
C    2.10550255   0.09000215  -3.31206619
H    3.14015398  -0.15429389  -3.43337588
H    1.88842498   0.21632280  -2.27196066
H    1.88996731   0.99867616  -3.83432589
C    1.23901543  -1.04801481  -3.88278281
N    0.59387639  -1.89532017  -4.30770728
C    2.48063500  -2.98440624  -1.07322151
H    2.29723811  -3.57771028  -1.94457452
H    3.36409491  -2.39884338  -1.21989739
H    1.64720295  -2.33570683  -0.90152646
C    2.67258704  -3.90690858   0.14486873
N    2.81550405  -4.59375351   1.05179229
C   -1.95766030   0.57199272  -3.42760357
H   -1.53240878   0.59383393  -2.44598028
H   -1.94935529  -0.43195028  -3.79764219
H   -2.96552585   0.92908434  -3.38770751
C   -1.13108314   1.47154174  -4.36525050
N   -0.51565888   2.14129688  -5.06337126
C   -0.43560939  -3.41402441   1.84500711
H   -0.09403374  -4.37036681   1.50790851
H   -0.23988835  -3.31418727   2.89220571
H    0.07906953  -2.64286138   1.31086081
C   -1.94967061  -3.29119519   1.59176488
N   -3.07695800  -3.19974325   1.40321453
C    2.60215577  -1.40727673   2.74152060
H    2.72713712  -0.91846955   3.68510281
H    2.44351697  -2.45350674   2.90006269
H    1.75724892  -0.99137405   2.23352802
C    3.86663389  -1.20359314   1.88641354
N    4.80809532  -1.05194145   1.24974746
C   -3.92155224  -0.42572938  -0.33181577
H   -4.08095895   0.11927822  -1.23870958
H   -4.31116462  -1.41660151  -0.43799345
H   -2.87289410  -0.47507803  -0.12498272
C   -4.64066027   0.28700867   0.82856698
N   -5.17606888   0.81767454   1.69252468
C    3.57903228   1.95808179   0.14315920
H    2.84110305   1.18335375   0.13062531
H    3.22285844   2.78048471   0.72770409
H    4.48427570   1.58150782   0.57167463
C    3.85084946   2.43145145  -1.29685350
N    4.05322971   2.78389668  -2.36900841
Cl   0.07012838   0.01796960   0.01358940
