73
Energy:   -457.92777329
C   -1.48500529   0.47369786  -3.75769014
H   -0.69483097   0.56653721  -4.47316591
H   -2.24642795  -0.16846593  -4.14853575
H   -1.09814608   0.05747055  -2.85105136
C   -2.08317532   1.86337307  -3.47029595
N   -2.52854009   2.89804944  -3.25631791
C    1.06479300   3.24685597  -2.21256403
H    1.93146912   3.77746417  -1.87756012
H    0.89295380   2.40537193  -1.57438303
H    0.21514030   3.89654571  -2.18268716
C    1.28761240   2.75921637  -3.65622574
N    1.45351157   2.39614652  -4.73109751
C   -2.72988798   0.42164743   2.68010017
H   -3.73031783   0.72047127   2.44612450
H   -2.75220208  -0.35025593   3.42075283
H   -2.25147064   0.05424287   1.79634124
C   -1.94646317   1.63131836   3.22281723
N   -1.36316779   2.53197335   3.62689475
C    1.62570889   3.06747338   1.71999341
H    2.69075526   2.97984520   1.77382383
H    1.23147788   2.26771953   1.12849127
H    1.21350458   3.01845736   2.70619021
C    1.25350164   4.41518898   1.07445145
N    0.97637643   5.41862451   0.59381612
C   -1.98929225   3.38005077   0.05212029
H   -1.96036421   4.05946286  -0.77399264
H   -1.37965867   2.52801043  -0.16530381
H   -1.61931334   3.86889357   0.92907377
C   -3.44083928   2.92493740   0.29187650
N   -4.52158202   2.58608481   0.47038590
C    2.04701768  -0.65158234  -3.07049424
H    2.26103587  -0.27691283  -4.04963629
H    2.03667814   0.15946376  -2.37264296
H    1.09081392  -1.13175375  -3.07347281
C    3.13009324  -1.66704037  -2.66135816
N    3.93649222  -2.42309503  -2.35673775
C    2.26754421  -3.44179738   0.48300914
H    3.25645648  -3.53193227   0.08447633
H    1.79595579  -2.57282172   0.07388233
H    1.69873780  -4.31079708   0.22571965
C    2.34164074  -3.31203570   2.01574252
N    2.39680897  -3.21542222   3.15693219
C   -3.80045439  -0.46882262  -1.06468175
H   -2.86847196   0.04004776  -0.93292490
H   -4.60529019   0.22884304  -0.96269616
H   -3.83163334  -0.90933479  -2.03929756
C   -3.93857635  -1.57132631   0.00162399
N   -4.04141444  -2.39219042   0.79553708
C   -0.93030844  -3.37686951  -1.53993369
H   -0.88332343  -4.43384280  -1.38024635
H   -1.32540420  -2.90142296  -0.66657866
H    0.05233577  -3.00182855  -1.73653920
C   -1.84356391  -3.07968379  -2.74377965
N   -2.52352412  -2.85841552  -3.64009769
C    1.13659072  -0.12199308   3.83871650
H    0.45794844   0.50102117   4.38295733
H    1.15356125  -1.09829341   4.27626509
H    0.81674214  -0.19315850   2.82012362
C    2.54924878   0.48890087   3.89168609
N    3.60103692   0.94373919   3.93112435
C   -1.21764146  -3.01629125   2.55829064
H   -1.02559192  -2.22000212   1.86985707
H   -0.57860732  -2.91309123   3.41027903
H   -2.23978631  -2.97753702   2.87232423
C   -0.94265570  -4.36666276   1.87091911
N   -0.73791630  -5.37207573   1.35913976
C    3.85498872  -0.10336589   0.58267942
H    4.44385658   0.05909570   1.46116736
H    4.22975811  -0.95515441   0.05456646
H    2.83697186  -0.27687535   0.86274234
C    3.93325483   1.13847573  -0.32468148
N    3.99152751   2.06308327  -1.00025291
Cl   0.00094716  -0.17565080  -0.06609185
