73
Energy:   -459.34076992
C   -2.55171527   0.70282046  -3.05833569
H   -2.74556120  -0.01885718  -3.82417205
H   -1.86164141   0.29445461  -2.34986235
H   -2.13288468   1.58442737  -3.49679811
C   -3.86871787   1.06038408  -2.34471645
N   -4.84928616   1.32660645  -1.81339449
C    0.80620435   2.72088755  -2.76254960
H    0.14258136   3.32667103  -3.34352385
H    0.24258320   1.98169689  -2.23261803
H    1.50758520   2.23792903  -3.41040380
C    1.56305573   3.60799497  -1.75665874
N    2.12656598   4.26848677  -1.00772728
C   -1.95152858   1.36352408   3.18755468
H   -2.81999542   0.89137095   3.59711168
H   -1.68243489   0.88168589   2.27086518
H   -2.16187149   2.39567121   2.99959920
C   -0.78614066   1.25103795   4.18796353
N    0.08154361   1.16728692   4.93281340
C    1.75469572   2.90734137   2.08373550
H    2.02241895   2.36264891   2.96494749
H    2.59733024   3.47254745   1.74401760
H    1.45286812   2.22248377   1.31903342
C    0.59101463   3.86350177   2.40498870
N   -0.27539883   4.57540665   2.64417632
C   -2.15090546   3.28096980   0.03399726
H   -1.21547501   2.78113943   0.17555877
H   -2.95045625   2.57749675   0.13764711
H   -2.25751526   4.05270590   0.76745266
C   -2.19303224   3.90210522  -1.37455381
N   -2.22439755   4.36456877  -2.42328411
C    0.83730101  -0.92995838  -3.80831472
H    1.43882007  -0.30700998  -4.43681315
H    0.80870201  -0.51875448  -2.82089761
H   -0.15618478  -0.98085878  -4.20238861
C    1.44260233  -2.34510863  -3.75771739
N    1.89327668  -3.39875231  -3.72004537
C    3.00064386  -2.50999613  -0.50067613
H    3.85959448  -1.98396598  -0.13957186
H    2.24387030  -1.80738806  -0.78091667
H    3.27421690  -3.09796240  -1.35176517
C    2.45984364  -3.43208648   0.60787451
N    2.05719329  -4.11862465   1.43324085
C   -3.72320108  -1.10239999   0.47617114
H   -2.87395122  -0.79530250  -0.09773302
H   -3.64338631  -0.71087699   1.46876292
H   -4.61631091  -0.73237261   0.01754965
C   -3.77494922  -2.64045680   0.53364617
N   -3.81347807  -3.78561000   0.57643894
C   -0.73423571  -3.66921292  -1.13907837
H   -1.30685776  -4.36865749  -0.56655636
H   -0.39859556  -2.87733955  -0.50253979
H    0.11154522  -4.16596837  -1.56661518
C   -1.61045278  -3.08728372  -2.26389038
N   -2.26283621  -2.65401098  -3.10136405
C    2.15661795  -0.91072172   3.23006711
H    1.91601596  -1.95131015   3.29477089
H    1.46933964  -0.42620458   2.56840952
H    2.08867160  -0.46784453   4.20173690
C    3.58986648  -0.74780652   2.69075524
N    4.65698516  -0.62650875   2.28921304
C   -0.87993624  -2.95117363   2.60820196
H   -0.47250645  -2.21949487   1.94220846
H   -1.30337456  -3.75344649   2.04078911
H   -0.10345859  -3.33123527   3.23870548
C   -1.97444528  -2.30256509   3.47593287
N   -2.78935701  -1.81964655   4.12199797
C    3.82517927   1.11297684  -0.53285651
H    3.86823899   2.16932025  -0.36797887
H    4.68456608   0.64851891  -0.09624201
H    2.93868170   0.71756725  -0.08266498
C    3.80222462   0.83019791  -2.04649754
N    3.78513384   0.61965614  -3.17347209
Cl   0.01889781   0.02268424  -0.01274105
