73
Energy:   -458.59039255
C   -1.69190888  -0.66458671  -3.38977357
H   -1.56122530  -0.67445243  -2.32782977
H   -1.17175144  -1.49434230  -3.82086636
H   -2.73395088  -0.73745009  -3.62158923
C   -1.12887092   0.64871146  -3.96408722
N   -0.70966357   1.62652165  -4.39168984
C    1.04908787   3.31337274  -2.08197522
H    0.29995497   4.07397403  -2.00996301
H    0.67529572   2.40357989  -1.66072057
H    1.29819760   3.15433747  -3.11034831
C    2.30673099   3.75698977  -1.31182087
N    3.24310345   4.08728281  -0.73840594
C   -3.19383749   0.52137248   2.27589227
H   -2.33667117   0.08158246   1.81032722
H   -4.03055420   0.46152179   1.61164674
H   -3.41794984  -0.00492256   3.18015235
C   -2.90071486   1.99795567   2.60051699
N   -2.68247174   3.09733897   2.84221485
C    0.46432551   3.69846111   1.80274809
H    1.51672679   3.89116543   1.81747114
H    0.28780251   2.71040959   1.43194772
H    0.07244451   3.78239820   2.79485843
C   -0.23227001   4.72236169   0.88733436
N   -0.75091703   5.48470221   0.20576723
C   -2.45296469   2.65282333  -1.04644247
H   -2.10136892   2.90269285  -2.02564920
H   -1.63696551   2.29206446  -0.45576704
H   -2.87030392   3.52306857  -0.58448978
C   -3.53277402   1.55991656  -1.15211459
N   -4.33674115   0.74619779  -1.23079228
C    2.44523090   0.14643238  -3.07559948
H    3.50652791   0.28262427  -3.07481876
H    2.07257206   0.24253283  -2.07720618
H    1.99091914   0.88812217  -3.69881387
C    2.10797543  -1.25537631  -3.61670129
N    1.85687341  -2.29908659  -4.01957618
C    2.96700269  -2.56459879  -0.17644303
H    3.88707965  -2.36307070  -0.68412894
H    2.20279286  -1.91702375  -0.55264643
H    2.68433943  -3.58332082  -0.34138541
C    3.14949463  -2.32047392   1.33309323
N    3.28536818  -2.13871186   2.45701160
C   -3.40527722  -2.30676577   0.00818584
H   -2.53389700  -1.68582845   0.01397642
H   -3.28120769  -3.10206051   0.71317670
H   -4.26103608  -1.72296102   0.27604379
C   -3.60632806  -2.89606489  -1.40032583
N   -3.75601954  -3.33482487  -2.44902678
C   -0.20194873  -3.70759078  -1.80875760
H    0.76420805  -4.00146153  -2.16242585
H   -0.15004169  -2.71495015  -1.41269027
H   -0.90091887  -3.73240230  -2.61852561
C   -0.66120594  -4.67758875  -0.70431803
N   -1.00314380  -5.39979632   0.11798743
C    0.63008856   0.27475698   3.63394547
H    1.19629008  -0.34989123   2.97505958
H   -0.18165948   0.71771297   3.09565726
H    0.24449864  -0.31396612   4.43993841
C    1.53845487   1.38358113   4.19695495
N    2.21477487   2.20915111   4.61614109
C   -0.12052719  -3.12698150   2.53070582
H    0.66295856  -2.82439646   3.19364815
H   -0.02001463  -2.60902146   1.59983863
H   -0.05663613  -4.18147637   2.36083056
C   -1.48478176  -2.79026811   3.16081182
N   -2.50053129  -2.53956968   3.62995438
C    3.54018979   1.33591548   1.24743804
H    3.83936145   2.35134057   1.40334946
H    3.70085021   0.77502585   2.14437179
H    2.50234642   1.30555701   0.98886772
C    4.37209542   0.72541658   0.10427396
N    4.99148698   0.27087241  -0.74686366
Cl   0.03160054  -0.06456167   0.04243898
