73
Energy:   -460.31068313
C   -2.43556514   0.85241576  -3.09192962
H   -1.75157228   0.36698040  -2.42754536
H   -1.89200248   1.30783491  -3.89319869
H   -3.11926651   0.13154838  -3.48917232
C   -3.21830998   1.93312875  -2.32318392
N   -3.80109909   2.73776869  -1.75081780
C   -0.30447479   3.72842329  -1.36624053
H   -1.31743986   4.06829803  -1.30890717
H    0.34968310   4.49429286  -1.00510297
H   -0.18887440   2.84911140  -0.76762025
C    0.04556181   3.40252928  -2.83009417
N    0.30617998   3.15988638  -3.91999974
C   -1.97850273  -1.02191717   3.22002574
H   -1.87376785  -1.87356622   3.85926332
H   -1.48091076  -1.20952915   2.29153068
H   -3.01674333  -0.83843680   3.03756892
C   -1.35111165   0.20976945   3.89894291
N   -0.88399047   1.12681612   4.40442760
C    1.24743838   2.83659103   2.45670574
H    1.19096973   2.74045516   3.52088118
H    2.27016010   2.78018048   2.14725911
H    0.69164611   2.04612631   1.99718471
C    0.65668060   4.19382455   2.03182644
N    0.21683458   5.20434660   1.71548450
C   -2.60082610   2.66337460   1.46187765
H   -2.91898614   3.50052852   0.87634569
H   -1.89723390   2.08333780   0.90204337
H   -2.13933147   3.01241815   2.36192787
C   -3.81976974   1.79095478   1.81494997
N   -4.72732869   1.14139858   2.07782836
C    1.09914162  -0.17841828  -3.84918615
H    1.75297922   0.53290970  -4.30897858
H    0.94238736   0.09082324  -2.82554744
H    0.16106703  -0.18533363  -4.36383877
C    1.73384052  -1.57975491  -3.91998835
N    2.20640270  -2.62311373  -3.97270381
C    3.48045404  -1.65358934  -0.77362082
H    2.47542051  -1.30659817  -0.89364128
H    3.82581716  -2.07209314  -1.69583445
H    4.10994209  -0.83411605  -0.49593860
C    3.52389416  -2.73009551   0.32676432
N    3.55623730  -3.53160328   1.14605106
C   -3.72466863  -1.19675234  -0.33421112
H   -2.94173155  -0.50241785  -0.11103113
H   -4.64083967  -0.85225249   0.09804987
H   -3.83874201  -1.27676090  -1.39509990
C   -3.36873030  -2.57674719   0.24933163
N   -3.10371804  -3.60421607   0.68380573
C   -0.38100580  -3.46980853  -1.78909011
H   -0.87069452  -4.10505144  -1.08087293
H    0.10131751  -2.66588324  -1.27336980
H    0.34864980  -4.03502172  -2.33041797
C   -1.42056558  -2.89909957  -2.77153947
N   -2.19456509  -2.47418081  -3.50301768
C    2.19526192  -0.76965452   3.10552322
H    2.56423134  -1.72687995   3.40963049
H    1.42186012  -0.90029704   2.37773115
H    1.80146679  -0.25270026   3.95557191
C    3.34411484   0.05203585   2.49187684
N    4.19948807   0.66382168   2.03498922
C    0.20293396  -3.88966956   1.76121541
H    1.04151233  -4.45069360   1.40493108
H    0.19457356  -2.92628277   1.29568873
H   -0.70136783  -4.40922391   1.52204883
C    0.30955945  -3.72100096   3.28823273
N    0.38894698  -3.59541952   4.42516654
C    3.10693970   2.26199324  -0.87337427
H    2.71651449   3.22283990  -1.13651311
H    3.83752175   2.37357082  -0.09961760
H    2.31136302   1.63687093  -0.52526662
C    3.76240497   1.61821170  -2.10929928
N    4.25042866   1.13888709  -3.02950162
Cl  -0.03809101  -0.01612482  -0.01736916
