73
Energy:   -458.87673324
C   -0.67069822   0.05939556  -3.96852715
H   -1.19532572  -0.76104903  -4.41185191
H   -0.55917823  -0.11408950  -2.91859129
H    0.29530678   0.15055561  -4.41955186
C   -1.46645871   1.35871125  -4.19245566
N   -2.05893857   2.32611084  -4.35918062
C    0.70360474   3.32231058  -1.89026893
H   -0.12720397   3.69378208  -2.45299977
H    1.23113458   4.14233019  -1.44961124
H    0.34927414   2.67051908  -1.11921981
C    1.65007249   2.54554521  -2.82431088
N    2.35476075   1.96720808  -3.51974757
C   -2.69293734   1.59040476   2.69272708
H   -3.42270437   0.89348418   3.04859500
H   -2.03600260   1.09925501   2.00562610
H   -3.18555621   2.40106211   2.19769132
C   -1.87910894   2.13359829   3.88193864
N   -1.27317670   2.53803056   4.76736070
C    1.07304489   3.22330115   2.09365962
H    0.94614900   3.05785911   3.14314832
H    1.98420754   3.75815537   1.92450680
H    1.11257844   2.28200466   1.58641499
C   -0.11261386   4.04638852   1.55668613
N   -0.99539069   4.65921448   1.15688497
C   -2.90004693   2.50044594  -0.98031109
H   -3.09903010   2.93184855  -1.93905906
H   -2.02518300   1.88727313  -1.03973589
H   -2.74142849   3.27977914  -0.26450451
C   -4.10110407   1.64040042  -0.54512902
N   -4.99534571   1.00005744  -0.22111618
C    2.50268354  -1.35905779  -2.93527321
H    1.88705051  -1.58816553  -3.77990674
H    3.26513747  -0.66727503  -3.22682032
H    1.90229416  -0.92389632  -2.16386787
C    3.15548425  -2.65127344  -2.41026851
N    3.64152405  -3.61338673  -2.01937865
C    2.96512704  -2.39633741   1.19541078
H    3.60481965  -1.77317311   1.78478316
H    2.38062257  -1.78707735   0.53810127
H    3.55968884  -3.07405107   0.61912999
C    2.02997114  -3.19470758   2.12260468
N    1.33370507  -3.78913046   2.81294269
C   -3.26643766  -1.62296515  -1.79297184
H   -2.58649903  -1.03355837  -1.21402169
H   -4.21254980  -1.12610609  -1.84684184
H   -2.87483199  -1.75241182  -2.78028519
C   -3.44696652  -3.00007198  -1.12770038
N   -3.58137846  -4.02539061  -0.63237554
C    0.05202095  -3.89726304  -0.84188619
H   -0.71788042  -4.53379708  -0.45851109
H    0.08355217  -2.99241407  -0.27166411
H    0.99574754  -4.39652933  -0.77108799
C   -0.24353932  -3.56486511  -2.31625241
N   -0.46359737  -3.31737975  -3.41398508
C    0.80606709  -0.23290591   3.86186206
H    0.19369982  -0.05869118   3.00188779
H    0.43283905   0.33713138   4.68688170
H    0.78576806  -1.27371837   4.10924125
C    2.25380557   0.19392021   3.55612892
N    3.33171268   0.51171165   3.32849670
C   -1.95517189  -2.37053541   2.06755183
H   -2.36706619  -1.69991153   1.34263330
H   -2.36409795  -3.34848744   1.92164642
H   -0.89177551  -2.40815794   1.95498285
C   -2.30430063  -1.87406342   3.48290503
N   -2.56424285  -1.50441745   4.53669982
C    3.72711446   1.06921576  -0.05863823
H    2.80104270   0.77282810   0.38795513
H    4.54113786   0.69020386   0.52326810
H    3.78573363   0.67652191  -1.05224500
C    3.80401269   2.60647456  -0.10885802
N    3.86126691   3.75103362  -0.14624894
Cl  -0.00599487  -0.04176095  -0.00509188
