73
Energy:   -459.03031009
C   -3.32786390  -0.10508531  -3.53022105
H   -3.57087131  -1.09088976  -3.86791493
H   -4.22572770   0.41159794  -3.26230668
H   -2.68488308  -0.16862122  -2.67732132
C   -2.61127265   0.66154413  -4.65733076
N   -2.07773790   1.23233459  -5.49651517
C   -0.33391995   2.46040691  -2.61324940
H    0.31170327   2.15507462  -3.41001978
H   -1.21864547   2.90316304  -3.02083602
H   -0.60061937   1.60816876  -2.02379147
C    0.39405772   3.48920698  -1.72825284
N    0.93607019   4.25519539  -1.06933266
C   -1.12502024   1.23689079   3.92968758
H   -0.86437228   0.97156966   2.92640919
H   -1.59064955   2.20025302   3.93434078
H   -1.80380193   0.51074990   4.32576070
C    0.14694017   1.27733355   4.79691368
N    1.09397251   1.30744502   5.44260293
C    1.83203571   3.10805673   1.99643958
H    2.39767744   2.66442126   2.78899065
H    2.47051298   3.73579353   1.41061334
H    1.42229730   2.33824564   1.37643602
C    0.68871948   3.95104242   2.59125309
N   -0.16253143   4.57868359   3.03411878
C   -2.25009106   2.89697388   0.81195730
H   -2.04688772   3.94749596   0.80850309
H   -1.33042110   2.35554700   0.73473557
H   -2.74435660   2.63229619   1.72330048
C   -3.15481796   2.54519473  -0.38358470
N   -3.82842825   2.28327916  -1.27372006
C    0.45450972  -1.06913154  -3.66737109
H    0.81308303  -0.38744916  -4.41009209
H    0.52651520  -0.61445130  -2.70146210
H   -0.56702801  -1.31370484  -3.87119370
C    1.30505036  -2.35264383  -3.69524281
N    1.93831652  -3.30827707  -3.71599456
C    3.30508647  -2.10837452  -0.72909635
H    4.10377383  -1.49405787  -0.36907728
H    2.47191364  -1.49133895  -0.99365111
H    3.63366485  -2.65229208  -1.58996163
C    2.88181178  -3.09776833   0.37251085
N    2.56666454  -3.83441700   1.19270749
C   -3.54975592  -1.13468107   0.09427143
H   -3.73851900  -2.18645273   0.14945362
H   -2.54872455  -0.96931884  -0.24556765
H   -4.23780050  -0.68426372  -0.59028532
C   -3.72854554  -0.50717731   1.48921706
N   -3.86166254  -0.03997224   2.52781748
C   -0.39003184  -3.86297491  -0.86784628
H   -0.73913913  -4.61343465  -0.18973532
H   -0.08792360  -2.99700151  -0.31673851
H    0.44349261  -4.24226040  -1.42127071
C   -1.52204248  -3.48333998  -1.84048662
N   -2.36487586  -3.20068452  -2.56466156
C    2.66931488  -0.69879803   3.12120760
H    2.62196521  -1.76292103   3.01971658
H    1.78001415  -0.26204928   2.71711127
H    2.75372953  -0.44267404   4.15666583
C    3.89589948  -0.16447421   2.35858824
N    4.80914746   0.23335417   1.79078346
C   -0.66371190  -2.49078800   2.81973425
H    0.21316168  -2.65539575   2.22905905
H   -0.44390321  -2.69027365   3.84773653
H   -0.97972632  -1.47406814   2.71336356
C   -1.78729204  -3.43008388   2.34340358
N   -2.62384853  -4.12943237   1.98875375
C    3.46880196   1.67150824  -0.99454262
H    3.30978087   2.71716979  -0.83266488
H    4.47456544   1.41870182  -0.73105101
H    2.78930784   1.10939248  -0.38856184
C    3.22808905   1.33941544  -2.47891847
N    3.04886735   1.09215726  -3.58410377
Cl   0.18693625  -0.08864054   0.23980973
