73
Energy:   -457.94535589
C   -2.43850155   3.17156557   0.97715264
H   -3.35400119   2.74857286   1.33469672
H   -2.08550182   3.90067631   1.67621473
H   -1.70692806   2.39836463   0.86825074
C   -2.68184157   3.84381698  -0.38683551
N   -2.86301928   4.34433872  -1.40238668
C    0.30281356   3.27519452  -2.29898216
H    1.01856203   2.97604690  -3.03594553
H   -0.48965686   3.81754377  -2.77094299
H   -0.09659512   2.40749549  -1.81683053
C    0.98808693   4.17400554  -1.25297109
N    1.49830410   4.84321120  -0.47416831
C   -2.53576974  -0.21401242   2.85961337
H   -3.23412636   0.11511297   2.11875261
H   -2.99077509  -0.96635168   3.46941241
H   -1.67040309  -0.61991555   2.37869518
C   -2.12127101   0.97929837   3.74040856
N   -1.81265786   1.86777249   4.39620061
C    0.86650688   3.34218952   2.48511010
H    0.69307847   2.60301996   1.73115313
H    0.78405562   4.31788408   2.05369265
H    0.14094934   3.23416992   3.26408193
C    2.27904534   3.15723751   3.07002708
N    3.33074442   3.01953233   3.50552435
C   -3.02589700   0.70368301  -2.33993974
H   -2.12169215   0.18198460  -2.10511102
H   -2.79668076   1.71669115  -2.59718186
H   -3.50869307   0.22620345  -3.16687403
C   -3.96231235   0.68377787  -1.11751179
N   -4.65951614   0.66895759  -0.20735862
C    0.80094742  -0.00083133  -3.80733288
H    1.10005828   0.86329485  -4.36295760
H    0.96362021   0.17207124  -2.76400103
H   -0.23740324  -0.19361083  -3.97927201
C    1.63077438  -1.21592129  -4.26180356
N    2.24861827  -2.12061100  -4.60017764
C    3.37769332  -1.82979531  -1.10732758
H    4.16035092  -1.53435255  -0.44019877
H    2.47870724  -1.30655935  -0.85643469
H    3.65838635  -1.59479466  -2.11275546
C    3.14113084  -3.34630861  -0.98152781
N    2.96499933  -4.47542170  -0.88786416
C   -3.21873007  -2.49748314   0.14258361
H   -2.36042909  -1.86187278   0.20753806
H   -3.88946001  -2.27426456   0.94582324
H   -3.71400224  -2.33364068  -0.79163275
C   -2.77586965  -3.96936809   0.23760651
N   -2.44613994  -5.06525334   0.30835539
C   -0.17441951  -3.37580593  -2.14228466
H    0.60482290  -3.63943928  -2.82652065
H   -0.47312169  -4.24266469  -1.59071237
H    0.18306815  -2.62810613  -1.46549320
C   -1.38055537  -2.82487016  -2.92542326
N   -2.27857834  -2.41467344  -3.50850555
C    1.44375770  -0.23513254   3.52761683
H    0.77569201   0.19921893   2.81352495
H    1.76944465   0.51735963   4.21506329
H    0.93836217  -1.01203065   4.06231654
C    2.66392109  -0.82514870   2.79639714
N    3.57238820  -1.26444255   2.25197085
C    0.64847480  -3.54101161   1.52553089
H    0.66420723  -2.66499881   0.91132063
H    0.29897543  -4.37324424   0.95095440
H    1.63646516  -3.74396242   1.88272148
C   -0.29311953  -3.31192450   2.72240983
N   -0.99417932  -3.14135873   3.61354060
C    3.46958422   1.68995574   0.08504482
H    3.59148126   2.69339766   0.43596592
H    4.26904932   1.08293651   0.45556109
H    2.53557729   1.30123090   0.43350306
C    3.48778330   1.67887659  -1.45480778
N    3.50133334   1.67062765  -2.60129804
Cl  -0.08997341   0.07186622  -0.01296464
