73
Energy:   -458.32002885
C   -2.11707447   1.23912660  -2.96181468
H   -3.11219640   1.05120686  -2.61638930
H   -1.42960503   0.62216010  -2.42178023
H   -2.05359967   1.01441518  -4.00602482
C   -1.76564049   2.72098018  -2.73333248
N   -1.50398192   3.82428753  -2.56321710
C    1.94679896   1.83707264  -2.64929420
H    2.43013552   2.72688650  -2.30358154
H    1.13295973   1.59698582  -1.99743293
H    1.57540946   1.99493439  -3.64027785
C    2.95700080   0.67474640  -2.65877930
N    3.70914198  -0.19065832  -2.66584138
C   -2.97009716  -1.19312841   2.37057096
H   -2.27568299  -1.20588869   1.55661376
H   -3.95069949  -0.97952890   1.99950034
H   -2.97155298  -2.14811641   2.85316282
C   -2.55610410  -0.10771600   3.38155546
N   -2.24786746   0.70042288   4.13427937
C    0.86950538   4.64950412  -0.37832941
H    1.89623179   4.86573672  -0.16862360
H    0.59281189   5.10039165  -1.30840480
H    0.73379103   3.59001326  -0.44125644
C   -0.01465571   5.21422569   0.74903421
N   -0.67295383   5.63468656   1.58840767
C   -2.48876789   2.64992255   0.82258349
H   -1.55374628   2.34278633   0.40270005
H   -2.42830948   2.61678592   1.89035961
H   -2.70981322   3.64867454   0.50868461
C   -3.60337690   1.70220313   0.34188124
N   -4.43325398   0.99658294  -0.01602343
C    0.38845357  -1.94685956  -3.53965056
H   -0.30166162  -2.70506563  -3.84586088
H    0.11671868  -1.58826135  -2.56884339
H    1.37625955  -2.35665293  -3.50489652
C    0.35109641  -0.78192478  -4.54619484
N    0.32328231   0.08542211  -5.29561282
C    2.73851275  -2.81032098  -0.79763010
H    3.71505618  -2.59570027  -1.17868268
H    2.12842898  -1.93395202  -0.86599924
H    2.29687564  -3.59801200  -1.37156268
C    2.84671228  -3.24684507   0.67523771
N    2.92727175  -3.57185710   1.77185474
C   -3.17888785  -2.08315855  -1.36182254
H   -3.25059791  -3.08890399  -1.00372483
H   -4.01610716  -1.51822262  -1.00853753
H   -2.27310435  -1.64060373  -1.00321331
C   -3.17436012  -2.08567052  -2.90181384
N   -3.17098902  -2.08754080  -4.04840736
C   -0.60827737  -3.91677425   0.91821005
H   -1.61145703  -4.05086169   1.26541502
H   -0.34033348  -2.88351603   0.99225472
H    0.05774040  -4.50177721   1.51745203
C   -0.50865500  -4.36894185  -0.55053766
N   -0.43448161  -4.70560119  -1.64408710
C    0.65942981   2.30787190   2.74592432
H   -0.03988402   1.49867799   2.77856750
H    0.97077088   2.46965273   1.73508665
H    0.19565667   3.19549064   3.12268226
C    1.88530934   1.96215469   3.61154489
N    2.79803238   1.70475251   4.25603875
C    1.00487703  -1.45520571   3.75331952
H    0.85012836  -1.06784620   2.76797407
H    1.98242425  -1.88546356   3.81796236
H    0.91634452  -0.66225132   4.46626020
C   -0.05191907  -2.53472766   4.05234189
N   -0.83875180  -3.33848082   4.27497764
C    3.72242763   0.28602841   1.04920555
H    4.20040557   0.20586394   2.00315048
H    4.26164210  -0.29461334   0.33017704
H    2.71886816  -0.07805552   1.12138849
C    3.70280634   1.76110673   0.60721125
N    3.68819740   2.85936959   0.27812640
Cl  -0.00906870  -0.14242474   0.05578423
