73
Energy:   -459.11883487
C   -0.84783232  -1.97613549  -3.31203196
H   -0.98927307  -1.30740906  -4.13525712
H   -0.31913139  -2.84479107  -3.64491618
H   -0.28251129  -1.48579346  -2.54726016
C   -2.21883963  -2.39411370  -2.74879740
N   -3.23961689  -2.70531748  -2.32944367
C    1.42084919   2.94213144   2.00776153
H    1.22312225   1.89684412   1.89296319
H    0.56363894   3.42292591   2.43075841
H    2.26151133   3.07703784   2.65582520
C    1.72924564   3.56041590   0.63145635
N    1.95886082   4.02075678  -0.39326542
C   -2.12654427   1.67450176   2.87529127
H   -1.28207428   1.32713325   2.31752274
H   -2.36210718   0.96753363   3.64314886
H   -1.89596198   2.62014983   3.31967919
C   -3.33478356   1.83093233   1.93333199
N   -4.23437264   1.94740200   1.23200049
C   -1.53739276   3.68310805  -0.76854663
H   -0.79126804   4.12098784  -1.39819683
H   -2.48735973   3.72473399  -1.25918817
H   -1.28279863   2.66293943  -0.57021128
C   -1.61043764   4.46125984   0.55838375
N   -1.66482288   5.04062922   1.54634374
C   -3.53380202   0.80863657  -1.90136811
H   -4.12003396   1.63789300  -1.56437247
H   -2.73326223   0.63464075  -1.21306541
H   -4.15038511  -0.06392936  -1.95927370
C   -2.95482533   1.12139436  -3.29369299
N   -2.52375086   1.35425675  -4.33034214
C    0.67422634   1.83165358  -3.18711379
H   -0.09698108   1.44636130  -2.55332427
H    0.23216586   2.35635223  -4.00819414
H    1.29396747   2.50122523  -2.62810233
C    1.52846273   0.66732787  -3.72211459
N    2.16448055  -0.19956554  -4.12044700
C    0.08555972  -1.75458664   3.29866461
H   -0.53342297  -1.51025784   2.46077199
H   -0.45974549  -2.37942691   3.97476812
H    0.95774840  -2.27285514   2.95868850
C    0.50596498  -0.46101306   4.02083274
N    0.81897581   0.50211127   4.55851973
C   -3.69788577  -1.54197439   0.83950679
H   -3.98901169  -2.46019594   0.37365803
H   -2.78506493  -1.19420598   0.40279826
H   -4.46441058  -0.80967289   0.69434029
C   -3.48943860  -1.77491547   2.34744851
N   -3.33424021  -1.94835069   3.47017966
C    2.48285123  -2.54627414  -1.43457775
H    1.89344582  -3.17377946  -2.06998197
H    3.48258373  -2.49454073  -1.81241061
H    2.05918722  -1.56400471  -1.41102629
C    2.50204644  -3.13132774  -0.01016776
N    2.51633815  -3.56692673   1.05037023
C    3.52842859  -0.51085588   2.24478138
H    2.61507967  -0.38761351   1.70117743
H    3.31168692  -0.86677939   3.23029677
H    4.15176939  -1.21840505   1.73909420
C    4.25777079   0.84237530   2.33657091
N    4.80079920   1.84991743   2.40491239
C   -0.93730317  -3.93404943   0.40518898
H   -0.84250661  -2.87844926   0.25814457
H   -0.33035533  -4.23470331   1.23351298
H   -1.96008949  -4.17573537   0.60617445
C   -0.47524200  -4.67276198  -0.86461543
N   -0.13121646  -5.22276705  -1.81004253
C    3.84909154   1.25898008  -1.16149477
H    3.85625349   1.59365590  -2.17778261
H    4.15095967   2.06034995  -0.51994894
H    2.86162843   0.94297707  -0.89699942
C    4.82552970   0.07872952  -1.00282170
N    5.55253229  -0.80002068  -0.88468240
Cl  -0.06666026  -0.00675679  -0.00979033
