13
Energy:   -563.96913957
O    1.20747564  -0.27912576   1.84991567
H    0.70654121  -0.61653539   2.59251333
H    2.11641684  -0.49953858   2.05357208
O   -0.45494937   1.29885544   0.37882569
H   -0.34707772   2.12517992  -0.09211318
H   -1.17465453   0.85765362  -0.07239188
O    1.30659503  -0.25306206  -1.03542555
H    0.83441988   0.15765948  -1.75971160
H    1.90154447  -0.87279796  -1.45755637
O   -1.99523249  -0.49458670  -0.91532881
H   -1.76194266  -1.18956383  -1.53080788
H   -2.92748640  -0.62839730  -0.74436328
H    0.62431282   0.27713706   0.65545828
