13
Energy:   -593.13033004
O    1.35768216  -0.04260693   0.74081403
H    1.15805895  -0.89030185   1.13804915
H    2.01575024   0.34408967   1.31843327
O   -0.91961060   0.79187896  -0.25260645
H   -1.58431522   1.47641413  -0.32883775
H   -1.34711305   0.09691897   0.24789741
O    1.25704606   0.93218712  -1.71000708
H    0.83481429   1.25451648  -2.50628338
H    2.15112409   0.72293025  -1.98031781
O   -1.60722748  -1.47713696   1.10882028
H   -2.01832721  -2.19269840   0.62384535
H   -1.83060105  -1.64790382   2.02379284
H    0.54677611   0.58672409  -0.40823464
