13
Energy:   -595.59518442
O   -0.22024969  -0.40846960   2.36358154
H   -0.82274662   0.11452246   2.89245638
H    0.10994112  -1.07572696   2.96522388
O   -0.05580742   0.57296966  -2.39314685
H    0.25295288   0.10697321  -3.17015794
H   -0.50086907   1.34685344  -2.73848130
O   -1.07601115  -0.48195067  -0.12947423
H   -0.91507036  -0.12548753  -1.00312401
H   -1.88059973  -0.99199750  -0.22286207
O    1.38813137   0.22483660   0.36016567
H    2.11548733   0.69008524   0.77335916
H    1.56370438   0.29025943  -0.57851735
H    0.02418941  -0.23947115   0.86986642
