13
Energy:   -576.25705550
O   -0.13028066  -0.61620066  -0.38242416
H   -0.02582521  -0.05982729  -1.15428527
H   -0.27098770  -1.49420693  -0.73673811
O   -1.28066537  -0.06226274   1.95997701
H   -1.42305912  -0.11037615   2.90530286
H   -2.10890571  -0.35198659   1.57747227
O    1.38346475   0.41969587   1.46107709
H    1.98993939   0.44309898   0.72089288
H    1.93499467   0.57330364   2.22818285
O   -0.02582084   0.27349837  -2.85973637
H    0.71958258   0.22677618  -3.45842045
H   -0.69041371   0.76550417  -3.34189657
H   -0.04841071  -0.01698877   1.10873332
