13
Energy:   -572.76993549
O   -1.69236482   1.43493984  -0.07431812
H   -2.61295942   1.28970030  -0.29259070
H   -1.62016776   2.38213359   0.04334000
O   -0.26942747  -0.23375321   1.36435496
H   -0.55806093  -0.61831469   2.19202340
H    0.63912936  -0.52005881   1.27062424
O   -0.25362043  -0.44598943  -1.36770118
H   -0.76377582  -1.04601028  -1.91171249
H    0.17269413   0.14075536  -1.99237574
O    2.20514500  -0.75449782   0.30490986
H    2.32717083  -1.33035932  -0.44989149
H    3.08908123  -0.61192742   0.64338036
H   -0.74137137   0.35306775   0.16453963
