13
Energy:   -594.31024743
O    0.17114066  -1.22963213   0.73790341
H   -0.47257020  -1.63443328   0.15652211
H    0.51961635  -1.95688586   1.25355693
O   -1.00682673  -0.69311632  -2.10159757
H   -0.74719813  -1.31191638  -2.78417455
H   -1.92376516  -0.49580118  -2.29270614
O    0.45527467   1.01610331  -0.57260292
H    0.04892318   0.52488203  -1.28661411
H    0.75138950   1.83031334  -0.97955487
O    0.54888765   1.02132620   2.04836038
H    0.76768815   1.94181123   2.19349995
H    0.41809519   0.66434341   2.92681839
H    0.42565140   0.29371487   0.72124588
