13
Energy:   -593.66412276
O   -1.41719515   0.76904235   0.08150654
H   -2.32600471   0.63020242   0.34800327
H   -1.14036658   1.54547623   0.56807434
O    0.95341862  -0.23953967  -0.43176228
H    1.77229079  -0.38526725  -0.90551716
H    1.22613691  -0.04758333   0.46546085
O    1.53467841   0.35382948   2.11601550
H    2.13472133   1.00267144   2.48368987
H    1.38061130  -0.26313942   2.83144862
O   -1.08964414  -0.89452518  -1.94605291
H   -0.85692995  -1.77317836  -2.24612713
H   -1.72465108  -0.58129263  -2.59016734
H   -0.49275101  -0.12474008  -0.76267269
