13
Energy:   -573.39317380
O   -1.49553480   0.58117775   1.76952079
H   -1.95439991   1.42054857   1.73588600
H   -1.29905860   0.45209231   2.69740327
O   -1.36560047  -1.06140507  -0.30099461
H   -2.10032532  -1.67488629  -0.30820821
H   -1.07248398  -1.02729753  -1.21157203
O    0.82886836  -0.16355479   0.72467995
H    1.30766298  -0.00854108  -0.08954256
H    1.47368758  -0.56012727   1.31048733
O    1.96893146   0.70034442  -1.98975842
H    2.32230701   0.04497181  -2.59129338
H    2.01127649   1.52227748  -2.47849637
H   -0.66636836  -0.28932021   0.70026231
