13
Energy:   -563.52341613
O    0.12068448  -0.27118534   1.46070318
H   -0.82670721  -0.16399403   1.37590423
H    0.25125036  -0.54112022   2.36972439
O    0.35374580   1.38378432  -0.75461959
H   -0.52375833   1.50128067  -1.11850551
H    0.67488015   2.27388911  -0.61033506
O   -1.94556428  -0.11962351  -0.42458997
H   -2.82017603   0.25747676  -0.32929298
H   -2.08954176  -1.06585196  -0.41217777
O    1.75020259  -0.87178268  -0.52160271
H    1.77111447  -1.38136144   0.28841213
H    2.49212897  -1.19902442  -1.03021842
H    0.72119701   0.14814638  -0.18306238
