13
Energy:   -563.13010752
O    1.24879715  -0.98078051   0.34265006
H    1.50038490  -1.80123268  -0.08137080
H    2.07455257  -0.60585586   0.64890377
O   -1.34346092  -1.61628555   0.72964317
H   -1.35122631  -2.34933631   0.11416925
H   -1.98682066  -1.85607527   1.39659218
O    0.48984053   1.82012385  -1.66562715
H    1.36663793   2.13514773  -1.88521339
H   -0.01350508   1.92950013  -2.47241825
O   -0.54195266   0.90419849   0.90494735
H    0.24940453   1.31794046   0.56026890
H   -1.25315217   1.48618893   0.63715221
H   -0.40535245  -0.51101556   0.67696814
