13
Energy:   -563.67054416
O   -0.80172699  -0.31481765  -1.33724163
H   -0.33569754  -1.09636672  -1.04020718
H   -0.81685175  -0.39246049  -2.29116756
O   -1.32406051   1.06930432   0.90658068
H   -1.07114703   1.93513433   1.22690087
H   -1.56651027   0.58323016   1.69473160
O    0.56295473  -2.03486257   0.18451476
H    1.51614700  -2.10732204   0.23356550
H    0.24807097  -2.47080019   0.97637236
O    1.09715436   1.30004123  -0.04114389
H    1.53235376   1.67213293  -0.80820392
H    1.76386805   1.31826060   0.64543658
H   -0.62070645   0.59535080  -0.21799979
