13
Energy:   -592.98374736
O   -0.26717910  -1.23253325   1.00581766
H   -0.46902097  -0.60544745   1.70026357
H   -0.08802322  -2.05193803   1.46702349
O   -0.19677351   2.15010408   1.10337225
H    0.23620793   2.61655995   1.81833927
H   -0.90847648   2.73084188   0.83419880
O   -0.46906691  -1.53103086  -1.61203282
H   -0.36102014  -1.31649070  -2.53860190
H   -1.17649982  -2.17563066  -1.59585770
O    0.99520660   0.40752958  -0.62629757
H    1.84338498   0.66093996  -0.99045203
H    0.71870783   1.16585364  -0.11178333
H    0.12249632  -0.79672336  -0.43256001
