13
Energy:   -573.61283607
O    0.98774801   2.12832057  -0.64506910
H    0.71600340   2.91208511  -1.12266710
H    1.84591593   2.35219216  -0.28498413
O   -0.02787820   0.07536486  -1.98818536
H   -0.58086632  -0.69194560  -1.84097584
H    0.24533963   0.00239638  -2.90265759
O   -0.53867590   0.34984371   0.59710205
H   -0.42435344  -0.48048619   1.05939469
H   -1.08809990   0.87487720   1.17908568
O   -0.33469861  -2.53089368   1.90873626
H   -1.00171940  -3.21703609   1.88585154
H   -0.01200323  -2.53985782   2.80985733
H    0.18731350   0.84914386  -0.66091514
