13
Energy:   -567.72400918
O    0.04468152  -0.60641555   0.53774123
H    0.39908015   0.02269665   1.16611317
H   -0.04284068  -1.41935862   1.03543117
O   -1.35943981   0.48243780  -1.38085388
H   -1.68675298   1.17752831  -1.95177167
H   -1.53396470   0.79803836  -0.49419206
O    0.76966985  -1.21669682  -1.93359029
H    1.51708579  -1.70157298  -1.58359547
H    0.70072982  -1.50594832  -2.84343241
O    0.41855987   1.28208500   2.52508661
H   -0.23126253   1.56722325   3.16747190
H    1.24336710   1.65498860   2.83632253
H   -0.19156018  -0.56740380  -1.06409084
