13
Energy:   -569.44228790
O   -1.43426902   1.09607576  -1.63299888
H   -1.10671013   0.48964865  -2.29721509
H   -1.77964678   1.83576232  -2.13280869
O   -0.08235554   1.58244861   0.69012609
H   -0.34702497   2.37078672   1.16415664
H    0.55674938   1.16038830   1.26427054
O    1.07133707  -1.81923715   1.55395383
H    0.62132126  -2.40333578   2.16431962
H    2.00197439  -1.97916251   1.71070174
O    0.27935884  -0.69118709  -0.73912761
H    0.19861444  -1.43780324  -1.33265648
H    0.56010577  -1.07446124   0.09184407
H   -0.50630538   0.87791337  -0.49028427
