13
Energy:   -579.70340375
O   -0.64031704  -0.62381616   2.26501350
H   -1.08797161  -0.57581036   3.10972214
H    0.21916697  -0.99220383   2.46948747
O    1.15566236  -0.78948542   0.15034419
H    1.95427573  -1.31455674   0.09791657
H    1.17298109  -0.24692988  -0.63804999
O    0.66528047   0.81806392  -2.00549704
H    0.65670591   0.50631180  -2.91046607
H    1.07968226   1.67963476  -2.05238715
O   -1.37707999   0.46393286  -0.13641065
H   -0.78327502   0.72328149  -0.84094297
H   -2.25245708   0.62124229  -0.49024753
H   -0.73927431  -0.22330607   0.93872831
