13
Energy:   -566.10203654
O   -1.61895842  -0.00656386   1.38430628
H   -2.21279328   0.31851801   0.70761301
H   -2.17822194  -0.14286487   2.14907957
O    0.39798309  -0.17032621  -0.28734666
H    0.72165808   0.54478201  -0.83514824
H    0.17776100  -0.86623509  -0.90657595
O    0.50999166   0.81430061  -3.30341671
H    1.26691363   0.90881829  -3.88166181
H   -0.20045989   0.53638017  -3.88156086
O    0.85033780  -0.49518988   2.29098780
H    1.19654070  -1.35894063   2.51528680
H    1.09294304   0.06036343   3.03175435
H   -0.09000563  -0.24895586   1.09476217
