13
Energy:   -586.07364530
O    0.33940969   1.89156915  -1.49599472
H    0.29631454   2.10163283  -2.42886551
H    0.38453225   2.74261247  -1.06019538
O    0.25708680  -0.79720401  -1.17978519
H   -0.01950731  -1.54905659  -0.65590998
H    0.29138497  -1.12934875  -2.07685562
O   -0.27398877   0.83810081   0.87351623
H   -0.18660840   1.56270996   1.49282077
H   -0.39433669   0.06468600   1.42449514
O   -0.25412377  -1.83120763   1.65588380
H    0.42460323  -2.26284654   2.17477624
H   -1.07576509  -2.19655183   1.98400117
H    0.19588688   0.57484721  -0.70834030
