13
Energy:   -566.82600960
O    2.30072053  -1.30656498   0.21450487
H    2.64515200  -1.96649029  -0.38724042
H    3.04852053  -1.06751056   0.76211788
O   -2.25698645  -0.80548849   1.42214367
H   -2.52985617  -0.52530156   2.29579649
H   -2.93317133  -1.42437740   1.14649465
O   -0.04739859  -0.01691854   0.02986816
H    0.82263888  -0.41594354   0.03662828
H    0.03161578   0.72081199  -0.57489811
O   -0.07131463   2.10221165  -1.61927029
H   -0.17879382   2.09168438  -2.57035874
H    0.22460978   2.99066873  -1.42101637
H   -1.14469908  -0.40853055   0.72128533
