13
Energy:   -564.19002144
O   -0.26781394   2.07184502  -2.40509284
H    0.52495319   2.59500466  -2.52365134
H   -0.74784165   2.17391870  -3.22691167
O    0.31556836   0.63153243   1.55452114
H   -0.30241149   0.99110760   2.19094746
H    1.10711876   1.15839296   1.66451105
O   -0.54874325  -1.87100307   1.53793969
H   -1.09692416  -2.64264966   1.39549293
H   -0.01182979  -2.09504916   2.29804438
O    0.37250424  -0.81549702  -0.66501974
H    0.29471908  -1.56556777  -1.25457482
H    0.44510746  -0.05917334  -1.24720108
H   -0.01607006  -0.65659036   0.75440469
