13
Energy:   -576.25556815
O    0.97528900  -0.35785833   2.19912915
H    0.53230041  -0.94022259   2.81625541
H    1.72642694  -0.01881171   2.68602856
O    1.03701296  -0.21877872  -1.45978665
H    1.46114561  -1.04910398  -1.67635834
H    1.75184279   0.41745702  -1.43847350
O   -0.46765553   1.09441628   0.35474376
H    0.02977045   0.69811697   1.07010807
H   -0.57929387   2.00807766   0.61740632
O   -1.64079155  -0.57956743  -1.35885732
H   -2.20147218  -0.81025052  -2.09956941
H   -2.24869604  -0.28809852  -0.67935026
H   -0.36477410   0.08839556  -1.00020213
