13
Energy:   -591.16382863
O    1.02967624  -1.82650125   1.34087592
H    0.67482037  -2.40588022   2.01513786
H    1.93607995  -2.11367719   1.23044884
O   -0.62279192   1.55547752  -1.71948342
H   -0.98615191   1.27407845  -2.55913569
H   -0.30315698   2.44303549  -1.88167530
O   -0.60386578  -0.79179610  -0.55659956
H   -0.06853687  -1.32762885   0.02866796
H   -1.13719011  -1.42323597  -1.03938388
O    0.12865542   1.30705938   0.82953683
H   -0.46314185   1.71973261   1.45859060
H    0.76692416   0.84166145   1.37013801
H   -0.35420765   0.69294333  -0.51822653
