13
Energy:   -560.71263661
O    1.39033343   0.91229072   0.94507555
H    1.75202614   1.79783998   0.97990011
H    2.14766719   0.34995820   0.78241162
O   -0.00106787  -0.81329471  -2.58045284
H    0.70638256  -1.00815750  -3.19508625
H   -0.69949702  -0.45088138  -3.12550802
O   -0.10786458  -1.22819587   0.39696661
H   -0.48169618  -1.41062899  -0.46512384
H    0.01988911  -2.09127476   0.79067422
O   -1.26138145   1.02355056   1.48160446
H   -2.16322609   0.88136635   1.76916616
H   -1.26349731   1.90688385   1.11289093
H   -0.05527241   0.21233083   1.09945370
