13
Energy:   -585.80329957
O   -0.56384698  -0.92605307   0.72825766
H   -0.97207077  -1.60660320   1.26345546
H   -1.03394913  -0.12487571   0.95923528
O    0.46946914   0.64973024  -1.13993541
H   -0.27604695   1.14325888  -0.79807712
H    0.71618054   1.11187238  -1.94105336
O   -1.54500590   1.62525730   0.59641313
H   -2.48914841   1.48267695   0.52934896
H   -1.46025109   2.45077924   1.07344771
O    1.85834812  -1.51676831  -0.34053895
H    1.90632364  -2.28819915   0.22410666
H    2.72904943  -1.45199820  -0.73286014
H    0.61068357  -0.51598629  -0.37982600
