13
Energy:   -564.71490450
O   -1.31376249  -1.84788418   1.82926171
H   -0.98415122  -2.38109783   2.55263676
H   -2.22667506  -1.67218182   2.05718968
O   -0.18001951   1.23770008   0.44654008
H   -0.78828465   0.79472738   1.03816543
H    0.04318007   2.05200972   0.89744319
O    0.07652288  -0.88067587  -1.02045178
H    0.06979651  -1.55277552  -0.33893240
H   -0.63901392  -1.12635764  -1.60686410
O    1.58373021   1.39217411  -1.47205731
H    1.37601051   1.71611816  -2.34849592
H    2.40622810   1.82576972  -1.24462842
H    0.54768949   0.55990257  -0.75742790
