42
Energy:   -154.28443711
C    1.65991523  -0.14222456   3.54058166
H    2.35128730  -0.05745666   2.72835063
H    1.92158730  -0.98536416   4.14518271
H    1.69618667   0.74730347   4.13414999
C    0.23603780  -0.33099195   2.98511794
N   -0.82410367  -0.47153785   2.57154996
C    4.00788823   2.99081430   0.89572106
H    3.80022064   3.56601563   1.77374030
H    5.02024498   3.15692988   0.59168403
H    3.86513608   1.95183465   1.10795255
C    3.05519205   3.41922689  -0.23584098
N    2.34586644   3.73819953  -1.07834036
C    0.06867665  -2.94280858   0.23660570
H   -0.89000944  -2.50273044   0.41591653
H    0.81064036  -2.42723416   0.80981767
H    0.04769315  -3.97308890   0.52467039
C    0.41079606  -2.83540023  -1.26106508
N    0.66551950  -2.75542983  -2.37614905
C   -2.45964305  -2.52584475  -3.69930288
H   -2.18042054  -1.50238924  -3.55975433
H   -3.29837813  -2.57961258  -4.36152005
H   -1.63740955  -3.06561498  -4.12058575
C   -2.83776546  -3.14460558  -2.34071594
N   -3.11929478  -3.60530115  -1.32918621
C   -3.66507164  -0.92050246   0.83702793
H   -3.41627556  -1.94727171   1.00657320
H   -4.69675152  -0.84392630   0.56376650
H   -3.49021083  -0.35885879   1.73082835
C   -2.78997150  -0.36128075  -0.30010479
N   -2.13841967   0.05508524  -1.14675178
C   -0.64409891   2.70895477   0.74842627
H   -1.59414083   3.12126371   1.01735352
H   -0.74496375   1.65595865   0.58741526
H   -0.29410980   3.17506010  -0.14887665
C    0.36470035   2.96022258   1.88455503
N    1.11579725   3.14730288   2.73045453
C    1.04466173   0.77286912  -2.41732520
H    1.66946807   1.53991382  -2.82495204
H    0.03605558   1.12590534  -2.36275276
H    1.08620810  -0.09233530  -3.04549261
C    1.53725174   0.40603683  -1.00509676
N    1.90400738   0.13291351   0.04637151
