42
Energy:   -153.84617702
C   -4.54802016   1.80603783  -0.17304831
H   -3.80643595   2.51838168   0.12278825
H   -5.50867015   2.12715066   0.17182445
H   -4.56043582   1.72632509  -1.24000230
C   -4.21485931   0.43335704   0.44042647
N   -3.96680592  -0.58866620   0.89718633
C    3.19188967  -1.81573841   3.30465981
H    2.85086759  -0.95240367   3.83687900
H    3.89957730  -2.34833861   3.90500499
H    2.35963790  -2.45165390   3.08587321
C    3.86198696  -1.37650518   1.98950059
N    4.36090485  -1.04947608   1.01030476
C   -0.60874020   2.47510635  -2.97188366
H    0.39169401   2.18641814  -3.21823848
H   -0.72925605   3.52459858  -3.14200445
H   -1.29771047   1.93292357  -3.58528148
C   -0.88356318   2.16045464  -1.48963313
N   -1.08818138   1.92618213  -0.38603024
C    2.65728808  -2.42315083  -1.54733394
H    2.28291851  -2.65816283  -0.57290233
H    3.69829398  -2.18466798  -1.48151801
H    2.52457377  -3.26584364  -2.19320918
C    1.88883814  -1.21529642  -2.11493626
N    1.31669222  -0.31599390  -2.53754198
C    2.28640985   1.68566254   0.35191231
H    2.06420001   2.67817111   0.01957257
H    1.62882615   0.99259187  -0.12989244
H    3.29976994   1.44571495   0.10609614
C    2.09417354   1.60004079   1.87746602
N    1.95104487   1.53629151   3.01331010
C   -1.13500160  -0.05226750   2.63005094
H   -1.45300827   0.78738975   2.04803063
H   -0.59663328   0.29200402   3.48826755
H   -1.99059583  -0.61151641   2.94643406
C   -0.22073994  -0.95134114   1.77717803
N    0.45996942  -1.62074233   1.14217538
C   -1.78720847  -1.66450369  -1.61764836
H   -2.40911302  -2.15884747  -0.90087843
H   -1.00902234  -1.13446466  -1.10933344
H   -1.35447681  -2.38966178  -2.27475425
C   -2.63494874  -0.67219083  -2.43511495
N   -3.26612990   0.06663120  -3.04375598
