42
Energy:   -153.62839883
C   -2.59571194   2.45769270   0.46674535
H   -3.56085369   2.77998938   0.13579759
H   -2.48187083   2.68234264   1.50668366
H   -2.50151008   1.40235828   0.31743238
C   -1.50605371   3.18939239  -0.33877343
N   -0.69475362   3.73417607  -0.93851877
C   -3.44235557  -1.76395579   1.84673367
H   -2.94150599  -2.63970440   2.20326453
H   -3.22895837  -1.62946757   0.80689058
H   -4.49771588  -1.87642695   1.98261577
C   -2.95140620  -0.53521838   2.63462521
N   -2.58587208   0.37963248   3.22124628
C    2.79589489   2.48289258  -1.25538124
H    2.92661355   1.79948399  -2.06825608
H    3.34088882   3.38198749  -1.45415006
H    1.75656435   2.71257984  -1.14613441
C    3.31923388   1.84188640   0.04339796
N    3.70888354   1.36462817   1.01039810
C    0.83115032   0.35648492   2.81751820
H    0.22465707   1.09028504   3.30598879
H    1.86267715   0.62299529   2.91663285
H    0.66513332  -0.60014175   3.26718793
C    0.45835939   0.29361279   1.32464379
N    0.18079960   0.24680163   0.21313093
C   -0.59549727  -2.84328679  -1.32232404
H   -0.12794057  -1.94765073  -1.67464062
H   -1.64835263  -2.79204679  -1.50608789
H   -0.18424844  -3.68649303  -1.83688863
C   -0.34499518  -2.99249407   0.18982208
N   -0.15848498  -3.10358568   1.31568360
C    3.37859392  -2.00772776   0.39334542
H    2.54705781  -2.09087978   1.06157713
H    4.09307185  -1.32095126   0.79677870
H    3.83571508  -2.96748155   0.27164085
C    2.88915657  -1.49516687  -0.97388990
N    2.52474821  -1.11354199  -1.99185874
C   -0.44009524   0.96278543  -3.12951977
H    0.39134664   0.70014768  -2.50933754
H   -0.52008212   2.02827256  -3.18642651
H   -0.29309252   0.56321500  -4.11116775
C   -1.73320502   0.38236419  -2.52737504
N   -2.69598403  -0.04978581  -2.07905092
