42
Energy:   -157.23387650
C   -1.39468215   1.20196109  -2.40811955
H   -0.82299985   1.94235567  -2.92763413
H   -2.18159724   1.67789429  -1.86117229
H   -1.81494512   0.51598809  -3.11361170
C   -0.48004166   0.43864528  -1.43221906
N    0.20094976  -0.12967803  -0.70561679
C   -3.77446379  -0.81385335   1.15142164
H   -3.14526562  -1.46182827   1.72512744
H   -4.79711452  -0.98268796   1.41708959
H   -3.51680422   0.20470203   1.35404339
C   -3.57902306  -1.10421708  -0.34827560
N   -3.43350855  -1.32040608  -1.46486837
C    3.35080890   1.20375485  -1.24770490
H    3.06863971   0.88582507  -0.26576734
H    4.34385777   1.60137945  -1.22225486
H    3.31792943   0.36886984  -1.91612472
C    2.37499367   2.29066616  -1.73556601
N    1.64845488   3.09992103  -2.09880078
C    2.63124203  -2.10557404   0.99322589
H    1.60375720  -1.94623944   1.24578792
H    3.20535154  -1.24839455   1.27702279
H    2.99655299  -2.96719876   1.51192603
C    2.75798912  -2.32849935  -0.52527320
N    2.85235809  -2.49447738  -1.65586480
C   -0.34353188  -0.05692289   2.73211990
H   -0.98467238   0.55256165   3.33408970
H   -0.11281247  -0.95976665   3.25799135
H   -0.83761163  -0.29553814   1.81350842
C    0.95827551   0.70872405   2.43098490
N    1.92753028   1.27878300   2.20677620
C   -0.63790921  -3.43217897  -1.54712581
H   -1.59748015  -3.39364467  -2.01897206
H   -0.18671849  -4.38430263  -1.73363737
H   -0.01428742  -2.65822111  -1.94333811
C   -0.80377121  -3.23121363  -0.02933046
N   -0.92726300  -3.08158580   1.10073717
C    0.09910039   4.06662874   0.72918488
H    1.01277417   3.51849937   0.82744274
H    0.04496050   4.81021315   1.49668093
H    0.06895838   4.54076953  -0.22955443
C   -1.09460602   3.10290958   0.86301458
N   -1.98337470   2.38537686   0.96265688
