42
Energy:   -155.36342883
C    2.56512884  -2.65693369   1.20989625
H    1.54923392  -2.32930874   1.13560229
H    2.89129744  -2.57997441   2.22606081
H    2.63590953  -3.67513824   0.88872858
C    3.45594945  -1.77377754   0.31654645
N    4.11920588  -1.11622764  -0.34859308
C   -1.03579836   1.18600210   2.97814257
H   -1.17777840   1.34113330   1.92901142
H   -0.69614362   2.09436747   3.43025550
H   -1.96272651   0.89071102   3.42368322
C    0.01378333   0.08035849   3.19615742
N    0.79524461  -0.74284344   3.35847939
C   -1.55452811  -2.40810031   0.90840899
H   -2.12356887  -3.29847592   0.74011146
H   -1.22216028  -2.38408719   1.92519515
H   -0.70672296  -2.39793955   0.25570518
C   -2.43410324  -1.17580764   0.62662472
N   -3.08898691  -0.25830974   0.41682352
C   -1.73030649   2.88732140  -0.59839129
H   -1.87928082   3.94586267  -0.64526572
H   -0.88063681   2.67357087   0.01583280
H   -2.59878212   2.42310005  -0.17988475
C   -1.48882789   2.33958501  -2.01728978
N   -1.30903610   1.93177037  -3.07372420
C    3.13654497   1.67926972   1.50333974
H    3.97366678   2.04874860   2.05796811
H    3.42149914   1.53336820   0.48235348
H    2.81533117   0.74780561   1.92058715
C    1.98390007   2.69809931   1.57402227
N    1.12570355   3.45666424   1.62664863
C    1.55505314  -0.12232404  -2.62849769
H    2.62034595  -0.03121773  -2.58665203
H    1.15639017   0.64163340  -3.26279727
H    1.29438376  -1.08325717  -3.02036257
C    0.97077253   0.03004899  -1.21181190
N    0.53574905   0.14349765  -0.15702494
C   -3.19260495  -0.81752543  -3.20834863
H   -3.47271899  -0.19873716  -2.38158544
H   -4.02201254  -1.43135250  -3.49154199
H   -2.90675819  -0.20079845  -4.03468909
C   -2.00712676  -1.71229329  -2.80136958
N   -1.12448437  -2.37848863  -2.49835518
