42
Energy:   -153.24868472
C   -3.83418980  -0.06453105  -2.11054009
H   -3.28349921   0.30105771  -2.95195848
H   -4.83325581  -0.29965093  -2.41300472
H   -3.36038289  -0.94495969  -1.72942133
C   -3.87079223   1.01485231  -1.01272780
N   -3.89804439   1.81850228  -0.19535665
C   -2.17624823   0.02589240   2.62368216
H   -2.16056537  -0.86917057   3.20978499
H   -3.18457337   0.37009398   2.52516938
H   -1.58801231   0.77839614   3.10598468
C   -1.59420433  -0.26432238   1.22775943
N   -1.16084620  -0.48040048   0.18843150
C    4.09215184   1.87511996   0.10895915
H    4.42987054   0.87457617  -0.06354703
H    3.54530019   1.91353530   1.02785883
H    4.93548812   2.53100453   0.16810680
C    3.17937152   2.31588301  -1.05042000
N    2.49976507   2.64405113  -1.91363047
C    1.79010485  -0.73324662   2.88509528
H    0.90171247  -0.13690193   2.87942346
H    2.56850117  -0.20871655   3.39877463
H    1.59476144  -1.65946652   3.38395071
C    2.22956624  -1.01340459   1.43596271
N    2.55676521  -1.22199494   0.35701765
C   -0.09309713  -3.72960092  -0.26487152
H   -0.92301227  -3.33003908  -0.80938174
H   -0.02086160  -4.78166463  -0.44609811
H    0.80800573  -3.24978335  -0.58532095
C   -0.29951976  -3.48106416   1.24085727
N   -0.45321078  -3.29601724   2.36194079
C    1.02898678  -0.33939571  -2.52897616
H    0.85536557   0.10080202  -1.56929819
H    1.19157197   0.43290731  -3.25148096
H    1.89179428  -0.97040376  -2.48111026
C   -0.19692962  -1.17631202  -2.93922009
N   -1.10968010  -1.79943426  -3.24466535
C   -0.62453521   2.97092324  -0.52005154
H   -1.53524548   3.44305609  -0.21575307
H   -0.85051786   2.08686447  -1.07886369
H   -0.06038326   3.64444442  -1.13078953
C    0.19949728   2.59442096   0.72526629
N    0.81302693   2.31409790   1.65246201
