42
Energy:   -153.24484294
C    1.49737572   1.57331081  -0.76091923
H    2.49202513   1.22586063  -0.57423475
H    0.79432020   0.88498474  -0.34042041
H    1.36582513   2.53594701  -0.31267257
C    1.26703256   1.67857798  -2.27995210
N    1.09553161   1.75695418  -3.41094111
C   -0.94450160  -1.17478155  -3.59377466
H   -0.66413512  -2.14403110  -3.23761440
H   -0.08405764  -0.67816679  -3.99115238
H   -1.68348637  -1.27667223  -4.36085933
C   -1.52283123  -0.34789289  -2.43042176
N   -1.95342392   0.26776331  -1.56425264
C    1.01956539  -1.28846287   4.51554463
H    1.39300099  -2.28877232   4.44606771
H   -0.04222987  -1.31237038   4.64561518
H    1.47039775  -0.79674698   5.35212383
C    1.36142775  -0.52205802   3.22428410
N    1.61595982   0.04856522   2.26288195
C    3.40162777  -2.26874375   0.43839425
H    3.08001621  -2.95617850   1.19264862
H    3.67384927  -1.34008256   0.89488405
H    4.24722843  -2.67436543  -0.07670735
C    2.25567763  -2.03213707  -0.56281280
N    1.40246566  -1.85597264  -1.30825696
C   -1.46540090   1.99214941   1.66056631
H   -0.40831016   2.15662137   1.68077319
H   -1.96851659   2.85952870   2.03396536
H   -1.77790980   1.80392257   0.65467967
C   -1.81293227   0.77795873   2.54179440
N   -2.07168517  -0.12606142   3.19790877
C   -1.34952977  -2.36667502   0.73170147
H   -1.00205134  -1.38103060   0.50221511
H   -2.23845562  -2.30262340   1.32382249
H   -1.56306712  -2.89010561  -0.17677049
C   -0.26291412  -3.12410522   1.51730057
N    0.54612062  -3.68804643   2.10221480
C   -2.09530588   3.39558678  -3.10259538
H   -1.36260206   3.00246841  -3.77602188
H   -2.57779675   4.23796454  -3.55259688
H   -2.82273178   2.64111153  -2.88691561
C   -1.40847476   3.83487020  -1.79611420
N   -0.89709778   4.16193668  -0.82337957
