42
Energy:   -153.27398115
C    0.61410717   2.21900624  -3.08965213
H    0.82381400   2.93382533  -3.85773864
H   -0.42109086   1.95067057  -3.12514999
H    1.21420582   1.34619201  -3.24123056
C    0.93850451   2.83260499  -1.71492927
N    1.18003307   3.28945715  -0.69138562
C   -2.71185087  -1.01061095  -1.36975037
H   -2.60400278  -0.60434149  -0.38577166
H   -3.08702634  -2.01049690  -1.30364027
H   -3.39623642  -0.40924118  -1.93088307
C   -1.34209323  -1.02176988  -2.07348292
N   -0.32224641  -1.03007822  -2.59744379
C    2.05350286  -0.23545580  -0.05578372
H    2.55699819  -0.85442998   0.65714237
H    2.62571655   0.65291571  -0.22391058
H    1.94402759  -0.76884735  -0.97687422
C    0.66284609   0.14449920   0.48579541
N   -0.37256108   0.42739297   0.88902568
C    0.20354441  -2.47429602   2.82468419
H    0.02366746  -1.45980809   3.11340328
H    1.19728095  -2.56432312   2.43831404
H    0.09282298  -3.11249387   3.67635512
C   -0.80845074  -2.88630145   1.73945733
N   -1.56192712  -3.19305822   0.93145660
C    1.61098045   2.89079054   2.75741421
H    2.37019669   3.23972589   2.08903184
H    1.54456571   3.55038967   3.59730537
H    0.67055687   2.86669540   2.24758875
C    1.96737177   1.47393125   3.24433821
N    2.23272131   0.41901510   3.60687526
C    0.23925537  -4.36743500  -1.91893758
H    0.39658243  -5.40040679  -2.14941023
H    0.34990978  -3.78272300  -2.80818814
H   -0.74726901  -4.23589642  -1.52604274
C    1.27342184  -3.91159239  -0.87284618
N    2.04340579  -3.57219685  -0.09398358
C   -2.13832754   3.29328198   0.76735985
H   -1.17491944   3.75880993   0.77272136
H   -2.14586673   2.48107446   1.46389499
H   -2.88223096   4.00977973   1.04689117
C   -2.44339994   2.76101930  -0.64516529
N   -2.67054020   2.36472554  -1.69685446
