42
Energy:   -157.04749680
C    2.07610165  -0.14263273   3.11136523
H    2.64421548  -0.37444733   3.98795455
H    2.73518178   0.18979853   2.33676732
H    1.55302524  -1.01671875   2.78385371
C    1.06269691   0.97058695   3.43594618
N    0.30817102   1.79942960   3.67761145
C   -2.23387511  -0.41256011   2.63329708
H   -1.37107308  -0.99699023   2.87601972
H   -2.88487152  -0.36843286   3.48132747
H   -1.92997452   0.57768269   2.36503836
C   -2.97610785  -1.06013839   1.44951799
N   -3.52873386  -1.54228986   0.56814066
C   -2.65130827   0.16106779  -2.24054956
H   -2.86172362   0.88548200  -2.99939711
H   -2.39975761   0.66203783  -1.32914933
H   -3.51393622  -0.45234121  -2.08401996
C   -1.46897085  -0.71972066  -2.68539777
N   -0.58866691  -1.37550770  -3.01660748
C    2.13340696  -1.14866037  -0.66221998
H    1.95823191  -1.54013864  -1.64250496
H    2.34836234  -1.95299868   0.00989099
H    2.96464729  -0.47549533  -0.69028112
C    0.87978608  -0.39643150  -0.17829184
N   -0.05359164   0.16363708   0.18201465
C   -1.17912327  -3.88856597  -0.61146545
H   -1.95303458  -3.18286805  -0.83044468
H   -1.61143704  -4.85459064  -0.45398454
H   -0.49474433  -3.93366660  -1.43273915
C   -0.42805359  -3.44897809   0.65906862
N    0.13115193  -3.12168493   1.60503899
C    0.49482271   3.62627708   0.79405965
H    0.36128191   4.41631442   0.08489956
H    0.54869502   4.03764814   1.78035104
H   -0.33212447   2.94989058   0.73440420
C    1.79967385   2.87063664   0.48105643
N    2.77119484   2.30802799   0.24801130
C    1.71398425   1.54249797  -3.22867016
H    1.47241464   0.51831954  -3.42258472
H    2.45789184   1.59437412  -2.46133096
H    2.09074981   1.99537615  -4.12189363
C    0.44873006   2.29008172  -2.76839810
N   -0.49330920   2.84669180  -2.42570463
