42
Energy:   -158.57006715
C   -0.54863497  -2.01465926   0.58418552
H   -1.12045907  -1.98072874   1.48793665
H    0.33706349  -2.59335192   0.74403587
H   -1.13325732  -2.46411928  -0.19112182
C   -0.15895954  -0.58371999   0.16925676
N    0.13117153   0.48167933  -0.13967657
C    1.42697756  -2.63059604  -2.63852318
H    1.83008564  -3.31538643  -3.35508873
H    0.36182192  -2.72862745  -2.61146038
H    1.82985620  -2.84810854  -1.67142639
C    1.79998774  -1.19085985  -3.03805181
N    2.07771078  -0.11891082  -3.33551903
C    3.56791702   0.98624284  -0.36743059
H    4.41260003   1.00126715  -1.02407742
H    3.77254759   1.59155907   0.49083376
H    2.71111513   1.37158810  -0.87958157
C    3.29084361  -0.46119551   0.07950628
N    3.08454986  -1.53887915   0.41227108
C   -3.97137918  -0.35217543   0.14914621
H   -5.03885032  -0.42240820   0.17089241
H   -3.57953970  -0.57332557   1.11994667
H   -3.58227034  -1.05213060  -0.56047070
C   -3.55899977   1.07461286  -0.25806183
N   -3.25196455   2.13692160  -0.56124672
C    1.50266186  -0.84263879   3.59862715
H    0.43683985  -0.93073232   3.63273217
H    1.90799982  -1.03880138   4.56925605
H    1.89669611  -1.54900568   2.89814023
C    1.88615109   0.58312038   3.16073811
N    2.17167625   1.64466289   2.83470981
C   -1.12144150   1.42842009  -3.24649172
H   -0.90927307   1.93710670  -2.32936432
H   -1.91509857   1.93165011  -3.75812351
H   -0.24650530   1.42372919  -3.86241682
C   -1.54378739  -0.02123461  -2.94363003
N   -1.85824309  -1.10056843  -2.71813574
C   -0.99034978   2.93242588   2.06343613
H   -1.77919224   3.39938915   1.51155475
H   -0.13375987   2.81680244   1.43273490
H   -0.73420637   3.54205376   2.90465161
C   -1.45651134   1.54934829   2.55475046
N   -1.80358980   0.51958416   2.92055632
