42
Energy:   -153.84917357
C   -2.28299423   0.98500808  -2.63003799
H   -2.41293422   1.48255610  -3.56836723
H   -2.01830991   1.70105443  -1.88029209
H   -3.19609377   0.50037499  -2.35385131
C   -1.16274259  -0.06415310  -2.75612158
N   -0.32866432  -0.84530129  -2.84999654
C   -3.23500190  -0.62452976   2.24870970
H   -2.49568169  -1.15638147   2.81034978
H   -4.20499822  -0.83129644   2.65027386
H   -3.04079564   0.42600457   2.30838088
C   -3.18251247  -1.07345633   0.77653111
N   -3.14343171  -1.40770258  -0.31957276
C    2.83294686   0.74018601  -2.23828539
H    3.40017899   0.71355876  -1.33140123
H    3.47744290   0.99062390  -3.05486656
H    2.39330548  -0.21967460  -2.41230306
C    1.72171706   1.79954963  -2.11779862
N    0.89435597   2.58829400  -2.02809074
C    3.04754979  -1.97059158   2.59733055
H    2.13448770  -2.36018599   2.99662244
H    3.17571481  -0.95901095   2.92164129
H    3.86917988  -2.56267175   2.94267696
C    2.99468158  -2.01363399   1.05884028
N    2.95531879  -2.04568103  -0.08663565
C    0.17112896   0.14585554   0.55151619
H   -0.48081287   0.78075864  -0.01130714
H   -0.38574566  -0.34254037   1.32369440
H    0.60121847  -0.58852117  -0.09703060
C    1.29191559   0.99194972   1.18362534
N    2.12639218   1.62190528   1.65425934
C   -0.32130390  -3.62414230  -0.86790465
H    0.55454238  -3.20514109  -1.31760617
H   -1.19270715  -3.20986031  -1.33042589
H   -0.31746054  -4.68582670  -1.00098566
C   -0.33323011  -3.29541474   0.63655404
N   -0.34210972  -3.05066213   1.75669192
C   -0.20975174   4.46542255   0.57781116
H   -0.44238590   5.34561140   1.13999361
H   -0.11910976   4.71745598  -0.45812430
H    0.71392094   4.05311981   0.92671561
C   -1.33478933   3.42927472   0.75750007
N   -2.17243096   2.65781557   0.89128664
