42
Energy:   -153.71498148
C    3.16329034  -1.60637244  -1.30741085
H    2.11234716  -1.56567233  -1.11052990
H    3.44956421  -2.61753262  -1.50866056
H    3.39112784  -0.99557590  -2.15588993
C    3.93592823  -1.08872490  -0.07994528
N    4.51119226  -0.70331277   0.83395862
C   -2.07013659  -1.53322569   3.56777803
H   -2.64132204  -1.87919084   4.40381361
H   -1.97042111  -0.46915129   3.61975495
H   -1.09982882  -1.98378337   3.58777034
C   -2.78809142  -1.91830061   2.26092756
N   -3.32264143  -2.20500639   1.28791798
C    1.73235664   0.73382243   2.22842565
H    2.45453035   0.43985481   2.96119325
H    1.00814108   1.37904104   2.68020420
H    2.22353403   1.25178082   1.43132907
C    1.02836584  -0.51719157   1.67078693
N    0.50421269  -1.44862835   1.25559955
C   -1.17236103  -3.76391029  -0.82655955
H   -2.24109482  -3.71204132  -0.83078902
H   -0.80817826  -3.53782513   0.15382583
H   -0.86201612  -4.74967428  -1.10378595
C   -0.60499792  -2.74519139  -1.83249738
N   -0.18257030  -1.98670886  -2.58146381
C    0.27677212   4.25691005   0.55434860
H    0.62511556   5.26861529   0.55743665
H    1.11428929   3.59139498   0.53081585
H   -0.29855315   4.07508623   1.43800013
C   -0.60194393   4.02034494  -0.68802616
N   -1.25618798   3.84421146  -1.61303064
C   -2.18115924   0.50670451  -0.58283982
H   -2.33281655   1.27644308  -1.31044052
H   -3.06216980  -0.09646507  -0.51279738
H   -1.35325590  -0.10400274  -0.87696870
C   -1.88645088   1.14593275   0.78688068
N   -1.66702711   1.62186723   1.80669985
C    0.23806692   1.29261613  -3.58368708
H   -0.51623580   0.53372363  -3.58056192
H    0.95480597   1.07994264  -4.34916354
H   -0.21386291   2.24391780  -3.77258820
C    0.94257292   1.32178163  -2.21459224
N    1.46710966   1.34349668  -1.19523891
