42
Energy:   -153.28942003
C   -2.60463554   1.02254901  -1.86559901
H   -2.49349854   2.02482286  -2.22336412
H   -3.44667371   0.56519452  -2.34172680
H   -1.72051161   0.46343645  -2.09058149
C   -2.82516215   1.04297665  -0.34160730
N   -2.98935423   1.05818595   0.79307379
C   -3.01692620  -2.40564122   1.62597364
H   -2.07604170  -2.71651993   2.02969503
H   -3.77750046  -3.09860476   1.91961869
H   -3.25962863  -1.43157676   1.99636945
C   -2.92712795  -2.36278338   0.08919146
N   -2.86026906  -2.33087377  -1.05501273
C    2.30643377   1.78635429  -2.22745531
H    2.62301568   1.67362064  -1.21159745
H    3.06861824   2.28968059  -2.78480311
H    2.13003213   0.82157655  -2.65522331
C    1.00770078   2.61275308  -2.27170099
N    0.04073504   3.22804453  -2.30464391
C    3.58808903  -1.15724172   1.12456506
H    2.89120527  -1.82284920   1.58955955
H    3.35249414  -0.14890749   1.39411324
H    4.57902974  -1.39197344   1.45294995
C    3.50394724  -1.31267410  -0.40525876
N    3.44129985  -1.42840057  -1.54428214
C   -0.05315416  -0.14128122   2.59800208
H    0.63644760   0.47365233   3.13763745
H    0.09085183  -1.16513244   2.87348357
H   -1.05424990   0.15403898   2.83357029
C    0.18790380   0.02221449   1.08579832
N    0.36738240   0.14394447  -0.04010612
C    0.39314883  -2.98457560  -1.81752751
H    0.12885086  -1.97488595  -2.05326796
H   -0.32831597  -3.65065500  -2.24264616
H    1.36053168  -3.20309855  -2.21917066
C    0.41960220  -3.16460815  -0.28831578
N    0.43929794  -3.29865057   0.85025186
C   -0.64945263   3.78999025   0.90078040
H   -1.34734939   3.93608385   1.69858799
H   -1.02203272   3.04096264   0.23366661
H   -0.51899365   4.70886366   0.36828514
C    0.70347283   3.33527289   1.47907516
N    1.71078733   2.99671515   1.90964190
