42
Energy:   -156.87464670
C   -3.30267466   2.39340472   1.36719432
H   -2.32549289   2.46874637   1.79654222
H   -3.78617387   1.51193084   1.73343385
H   -3.87816267   3.25414702   1.63707455
C   -3.18493573   2.31480692  -0.16628536
N   -3.09727376   2.25628729  -1.30803068
C   -2.26839477  -1.06429201  -1.69435296
H   -2.08890209  -1.98793668  -2.20382629
H   -2.80964653  -0.40179350  -2.33703588
H   -2.84114753  -1.25027084  -0.80989536
C   -0.92339390  -0.42076513  -1.30906630
N    0.07802039   0.05836989  -1.02220288
C    0.20131926   0.19318394   2.47924411
H    0.10083868   1.22585198   2.74077907
H    0.82893606   0.10297506   1.61735166
H    0.63903331  -0.34080559   3.29665507
C   -1.18734636  -0.39470805   2.16684880
N   -2.22127103  -0.83242035   1.93425629
C   -0.57874606  -3.92714338   1.81124698
H    0.20226529  -3.28980317   2.17002115
H   -0.41602041  -4.92404822   2.16423453
H   -1.52218392  -3.57148062   2.16947611
C   -0.57917662  -3.92152761   0.27125728
N   -0.57949720  -3.91734641  -0.87533505
C    0.21610962   3.36784862  -1.93130197
H    0.79757848   4.21170269  -2.23904285
H   -0.77771435   3.45974414  -2.31700682
H    0.66283067   2.47091352  -2.30659762
C    0.16664826   3.31198467  -0.39311057
N    0.12982203   3.27039142   0.75214285
C    2.46492583  -2.35882539  -1.79242917
H    1.96405985  -3.26556517  -2.06048964
H    3.48525189  -2.40737365  -2.11098355
H    1.98194557  -1.53067311  -2.26760594
C    2.41242205  -2.17584461  -0.26424025
N    2.37333061  -2.03960710   0.87356587
C    3.23943447   1.41522305   0.25957279
H    3.79647806   2.27598974   0.56565011
H    3.63304988   0.54536983   0.74260629
H    2.21209685   1.54003337   0.53141630
C    3.34979456   1.24866702  -1.26741108
N    3.43196266   1.12465848  -2.40431998
