42
Energy:   -155.27970092
C   -0.75167863  -0.10559806   2.98806371
H    0.02594005   0.18207366   3.66441743
H   -1.70329833   0.12191659   3.42114120
H   -0.64096677   0.43031406   2.06858550
C   -0.66058937  -1.61839686   2.71467288
N   -0.59276929  -2.74474433   2.51112098
C   -0.69167670   3.60681865   1.43453229
H   -0.21413266   4.53950938   1.65118843
H   -0.23010291   2.82862925   2.00573276
H   -1.72888992   3.66940267   1.68981851
C   -0.55049240   3.29437749  -0.06681628
N   -0.44537428   3.06175084  -1.18463853
C   -3.31697190   0.62523710  -1.28426461
H   -2.61665241   1.21201627  -1.84116944
H   -4.29955073   0.76958052  -1.68251444
H   -3.05176665  -0.40894885  -1.35514966
C   -3.29242674   1.06142255   0.19246820
N   -3.27415174   1.38618245   1.29196290
C    2.60324712  -2.18550286   1.20871181
H    2.15053382  -1.36768246   1.72940428
H    3.47911295  -2.50254407   1.73525054
H    1.90953353  -2.99794154   1.14867908
C    2.99265352  -1.73694537  -0.21211852
N    3.28258429  -1.40297393  -1.26999129
C    3.01756138   2.06641715  -0.68217843
H    3.68092149   1.30681681  -1.03975483
H    3.53395938   3.00286674  -0.64620137
H    2.17878054   2.14676020  -1.34164094
C    2.52680812   1.69625181   0.72981974
N    2.16142001   1.42064688   1.78111657
C    0.46462866   0.09875616  -3.00349864
H    1.47517759  -0.18337215  -3.21348596
H    0.33628246   1.14173692  -3.20503643
H   -0.19975631  -0.46832318  -3.62148951
C    0.15113338  -0.18013275  -1.52176261
N   -0.08227811  -0.38777822  -0.41854277
C   -1.08042476  -3.82058419  -0.64546586
H   -0.22132858  -3.30483861  -0.27015207
H   -0.80271358  -4.81257672  -0.93482103
H   -1.82937963  -3.86801615   0.11723716
C   -1.63864338  -3.06687667  -1.86690638
N   -2.05426251  -2.50570716  -2.77632437
