288
 energy: -417.600290534409 gnorm: 0.001920668765 xtb: 6.4.0 (d4b70c2)
C         5.45402572594737   -3.43382146475657    5.84813707420604
H         6.30696407123093   -2.91364573336314    5.41146059366723
H         5.75372071424264   -4.41531735871797    6.21203375106599
H         5.03628157292664   -2.85909700008863    6.67329767113616
C         4.45302641614978   -3.60648330839370    4.84851895794789
N         3.65280008624613   -3.75374343383748    4.04235354501642
C        -7.43776508843172    1.59893702784883   -4.13498128192272
H        -8.33599041488868    1.45546628105365   -4.73388160898407
H        -7.70090736584424    2.07710788829442   -3.19158274165791
H        -6.97537146386063    0.63110040707473   -3.93208398917161
C        -6.50975426359628    2.41560601252613   -4.84923525192928
N        -5.76377218928271    3.06791941218456   -5.42320665047557
C         0.12280788780619   -3.76446865184769   -2.40908173357370
H         1.08727898932432   -4.26849452008809   -2.49278987850565
H        -0.36162476194201   -4.07390499135582   -1.48461432478005
H         0.28077713718875   -2.68645971449370   -2.37553992462906
C        -0.67487534508182   -4.11473152638144   -3.52970713693165
N        -1.31450212576446   -4.40891708973276   -4.43659521781570
C         4.07794214331945    0.10763188459851    5.79911782288471
H         3.51731272769310    1.04216437021359    5.84489938177523
H         4.97730968494609    0.19131381355413    6.40766397938774
H         3.45249008704973   -0.70615958684679    6.17100123504451
C         4.43299568002083   -0.14156010570305    4.43684573081307
N         4.71943413742864   -0.33280828005106    3.34538712282216
C         1.78433898467498   -1.73892434350234    2.34120123684577
H         1.17285322145707   -1.11023096275317    2.98928517614187
H         2.42855434641456   -1.11649343530712    1.71634703185912
H         2.41061968312596   -2.38536802464126    2.95760351112650
C         0.94868844247311   -2.53453801729707    1.50625319582868
N         0.26940131432453   -3.17162482916338    0.83844994963303
C         0.99990520683125   -0.19968880154477   -4.86551076781666
H         1.20523483044805   -0.35341857970803   -3.80468313194519
H         1.17116488554691    0.84478240787625   -5.11922155152915
H         1.64714731309918   -0.83905746394470   -5.46485042730488
C        -0.36131072920946   -0.53082530294722   -5.11364022449740
N        -1.46553641827568   -0.79226656207787   -5.27532266399895
C         8.26828112097779    0.82451311990229    4.03386207377122
H         9.24655648976196    0.93476818446385    3.56652724430963
H         7.84677495920398   -0.14652974046054    3.75934616641602
H         8.37585865935577    0.88143142512194    5.11617566488872
C         7.40461113145883    1.86540382900508    3.57755801848211
N         6.72244669272086    2.70419653168523    3.20005675470473
C         1.40165891256682    4.79467306393697   -5.97502079087052
H         2.17258097680458    4.10079261388719   -6.30972509753094
H         0.82852800481476    5.14857244455059   -6.83017337962494
H         0.73429135298332    4.27865902033386   -5.28489946585970
C         2.02131261570711    5.90130619183996   -5.31645789887816
N         2.53288546084852    6.77365875205039   -4.78002041527829
C        -0.64250890752885    4.20195577229290    4.11184826570522
H         0.20337580692797    4.39007473666871    4.77153773856121
H        -1.55775332639436    4.07719035084819    4.69066045492164
H        -0.75196442232048    5.04207791431087    3.42716705467024
C        -0.40064001870793    3.00881030471017    3.36703093723047
N        -0.20992246327344    2.04917994551978    2.77287279616774
C        -6.24117570595691   -1.80180705015833    0.81920418771927
H        -6.15139976007858   -0.96041461959015    1.50606564756538
H        -6.65230209005295   -2.66130478121183    1.34676706922533
H        -6.89596310717429   -1.52734441870584   -0.00714723934090
C        -4.94115280072737   -2.12101988719172    0.31573275329700
N        -3.89905925788890   -2.36683057604237   -0.08766004206548
C        -3.21323706914563   -6.40049300751907    5.54119934311919
H        -2.71663988120525   -7.10131477875469    4.87113896674914
H        -3.61921933434566   -5.56875891414942    4.96083884711539
H        -4.01731117516052   -6.90411715475549    6.07538807551732
C        -2.26075201666685   -5.88479016946573    6.46815815332170
N        -1.48882313620741   -5.46628622409013    7.20413467821021
C        -5.31305958901317    1.48182366536493   -1.03813234464251
H        -4.89767260618921    2.38388327867057   -1.49105461871820
H        -5.40277744320623    0.70206204035746   -1.79467536785268
H        -4.65069381806134    1.13791335713864   -0.24361911739837
C        -6.59777709889761    1.76256296060161   -0.48412698780654
N        -7.62755095397171    1.98173428773704   -0.03262775515187
C         3.09968016674480    3.48287016852742   -3.08713632289646
H         2.07671632786757    3.19238206904202   -3.33282140259789
H         3.79663844539581    2.85235087589306   -3.63662198479836
H         3.25825473636637    4.52529453403463   -3.36199925143334
C         3.29585036087690    3.33150233854875   -1.68438403755100
N         3.41277855214725    3.21517872765446   -0.55041283864073
C         3.61484119512677   -7.56031475758705   -2.18951894759923
H         4.03101721283424   -7.48749011753858   -1.18417511438496
H         4.35708321897344   -7.98325180672403   -2.86461501612990
H         2.72017427360198   -8.18454225215497   -2.17595699451572
C         3.25550407087979   -6.25569763867276   -2.63553038987620
N         2.95780129444276   -5.20670150647796   -2.98639530571640
C        -1.79711306782309   -5.18229608543724    1.99223740100470
H        -2.55109395485252   -4.65207271962261    2.57575200918214
H        -2.28180764737905   -5.86861107652599    1.29959921832042
H        -1.20464700947013   -4.45427911473851    1.43155940266698
C        -0.93036264777419   -5.89978818408966    2.86277688481308
N        -0.23133806651248   -6.47558660895383    3.56654706106249
C         3.69735323842761   -2.09005244349784   -2.83420819232252
H         3.34036345400532   -3.11784400157651   -2.92087304484902
H         3.77273686370579   -1.65206240415572   -3.82906025014508
H         3.00783440664357   -1.51371605122216   -2.21715281975405
C         4.97427597557491   -2.11061996854527   -2.20920129251245
N         6.00538701270129   -2.14750225552027   -1.70680241995899
C         0.80615315248535    1.13750477972115    0.06273408481805
H         1.60922261893957    1.83870138218897   -0.16127006950582
H         1.00410316179725    0.68539600804692    1.03094912904626
H        -0.15146882101394    1.65828784297919    0.10126454375689
C         0.77163192602987    0.13791862014571   -0.94544119345840
N         0.71201761712501   -0.64548164382962   -1.78078361384551
C         0.66136884066001   -3.65198661927157    5.34050339706738
H         1.25435425333461   -4.19916948614377    4.61065374462727
H        -0.00890842894890   -2.95976290924657    4.82958896572172
H         0.07201911808185   -4.34958766318832    5.93402188778527
C         1.52483797350043   -2.90176241360778    6.18921719638981
N         2.19473889275580   -2.28393170331173    6.88462100399065
C         3.07173746307229   -6.62423020176195    2.79762619765317
H         2.03835471687757   -6.74330110563341    2.47304767486968
H         3.17014055695223   -5.69198421276106    3.35883783485496
H         3.35636572123583   -7.45833019661751    3.43771508153914
C         3.94204788550211   -6.56662683801620    1.67067445953722
N         4.65692366074315   -6.51057275693361    0.77718898709121
C         3.58380382638268    3.56784428784707    2.76603208910873
H         3.31635548536418    3.00759811544219    1.87089663375583
H         4.65843104084611    3.48763279304976    2.93332084908596
H         3.30250421477972    4.61470853989055    2.64346996075045
C         2.90272297139143    3.04174651123489    3.89768775594454
N         2.36569581279887    2.63464646770592    4.82559727800316
C         2.12576709015349    1.16219031603388   -7.93588035474377
H         1.17245583898698    1.67755471808876   -7.80378760421191
H         1.95706522331784    0.08887131071957   -7.84400561722149
H         2.52924516856971    1.38063075668453   -8.92357603329541
C         3.03582499378402    1.58816065289288   -6.92749717469650
N         3.75018809857916    1.94623851526143   -6.10456554281278
C         0.19254792340110   -4.28002805559432   -7.32287331882963
H        -0.44378516460517   -4.46189109035241   -8.18771286914337
H        -0.40361389366706   -4.30600165813144   -6.40894843560277
H         0.96847343360440   -5.04430030935179   -7.26061704068604
C         0.80006335760365   -2.99756993376192   -7.43862961638061
N         1.28971743705005   -1.96532867473586   -7.52503836792762
C         5.85070709189074    0.71076264373525    0.44673300200829
H         5.85415224628007    1.33828977954123    1.33581116880031
H         6.12967954267507    1.29516530631000   -0.43016211677550
H         6.55731277121575   -0.10618922492173    0.57927198073140
C         4.54347976044051    0.17934349167387    0.25242725146308
N         3.49382325224822   -0.25104394334862    0.09529244993934
C        -6.84673544532386    1.87119160300778    3.21213820650083
H        -7.71423568386858    1.65685896113156    2.58901200379844
H        -5.93854625409139    1.62370217090050    2.66006346698422
H        -6.83957584024163    2.92853991405463    3.47305908735419
C        -6.86894309409307    1.08363899156855    4.40116468884038
N        -6.85178528223319    0.44842370504459    5.35474709643260
C        -0.76021361738428   -2.75719929376465    8.82958948525584
H         0.27591447972673   -2.54090141085372    8.56881608288997
H        -1.04110493489621   -3.72421672434910    8.40781593226125
H        -0.86895157567551   -2.78633457878189    9.91292441696734
C        -1.60842143574015   -1.74712281996234    8.28838547628878
N        -2.29373977918805   -0.93591790149285    7.85841094476814
C        -0.06916044121137   -7.48000201395901   -5.02818584900476
H        -0.55433045914654   -8.25273986942474   -5.62238974103601
H         0.84843781723939   -7.15616665693706   -5.52274614229017
H        -0.73509588825087   -6.62426527310837   -4.91779334041705
C         0.25883803805908   -7.99467277830597   -3.73706512043760
N         0.53099820460610   -8.40711405938822   -2.70387229621988
C         4.78322974163980   -5.03295958000146   -5.89315924417097
H         5.41963889335554   -5.06916314858309   -6.77668470989589
H         5.29772095205069   -5.51736662692637   -5.06013635364149
H         4.57130515110140   -3.99608786535794   -5.63361095211962
C         3.55873200589566   -5.71079401031333   -6.16014592948089
N         2.57573914202528   -6.24881647198216   -6.39851080154492
C        -0.05045939557699    1.09806811856495    6.19326001942329
H         0.78175803388109    1.62772144918992    5.72402262556074
H         0.25013060131814    0.73082399210698    7.17327001147203
H        -0.89879743856127    1.77280418982864    6.29696233379804
C        -0.42476529364290   -0.00237023904501    5.36848229212441
N        -0.72139612613536   -0.88916063694556    4.70706770198256
C        -1.90313466444171   -0.49600931843814    1.83919716587123
H        -1.20024936631340    0.30908672371046    2.06038711749078
H        -1.73033648798563   -0.89246900999644    0.84042264892554
H        -1.77555507017497   -1.29144516681223    2.57186870717269
C        -3.21763222419771    0.03073010183150    1.93134559490641
N        -4.27518448277026    0.46753172946597    2.01540914611716
C         6.89641375953779   -5.28345044719340   -1.25829491481084
H         6.77406634633017   -4.20265641923884   -1.34602184753438
H         7.90528657441070   -5.51333384238169   -0.91908501503290
H         6.17030498076486   -5.67459546873051   -0.54480724596849
C         6.66529185240975   -5.87563329953591   -2.53470880713533
N         6.47271005308211   -6.34784658009431   -3.56057990795602
C         6.41439552253375    4.28479697449840    0.14689054133946
H         6.85652858523519    4.18304054776607    1.13720638186591
H         6.96644852553968    3.68206691569448   -0.57363496887958
H         5.38031342083419    3.93862526350976    0.17063707670989
C         6.43457904611189    5.64705626099183   -0.27391720840090
N         6.44332668395998    6.73642755205810   -0.62842550576487
C         5.62926216963091   -2.91861882588337    1.48904632726249
H         5.95703629424580   -2.66673223151389    0.47998995566401
H         4.69191474678889   -2.40413410283903    1.69272345632053
H         5.47851380192809   -3.99423556730522    1.56767911956484
C         6.59478389750896   -2.48823782019688    2.44403514943037
N         7.36964533000871   -2.14109476909474    3.21401407492856
C         4.41452618810880   -1.64222550333943   -8.64605308256890
H         5.01789034099987   -0.79486820198341   -8.97094755355986
H         3.43907675071129   -1.59855237924860   -9.13647384504772
H         4.91149937072056   -2.57021475359446   -8.92702011360036
C         4.25269898562710   -1.59743030909474   -7.22844695491306
N         4.14947221324901   -1.56376171035381   -6.08815949807983
C         6.23428561489724    0.65545197164442   -4.46648503691809
H         7.10563361674119    0.77050426462918   -5.11003856875265
H         5.33936586017748    0.95248117592967   -5.01808742396479
H         6.14349836276708   -0.38621467740442   -4.16095767571123
C         6.38410340737984    1.47746358633340   -3.30923494103923
N         6.50241514416554    2.13854079199607   -2.38144661545663
C        -3.66543789479172    3.83233091981461    1.86759614226510
H        -4.69047660580521    3.80087263501858    1.49999860657882
H        -3.32940248308331    4.86752660986446    1.92894502978373
H        -3.60938688332462    3.36448395533383    2.85123253114102
C        -2.81745069914346    3.13325957455388    0.96040546002319
N        -2.13985405253251    2.57515478157292    0.22485158228089
C        -2.60915469536004    3.68160056953683   -6.04551890490421
H        -2.51890887165863    4.71489850229318   -6.38062806700483
H        -2.48719021875455    3.65496256561709   -4.96315790378241
H        -3.59611586165870    3.29532333006076   -6.29890384186850
C        -1.59133890842429    2.89169990461691   -6.65789413781322
N        -0.76106800676465    2.27523450707691   -7.15015151924044
C         1.10640080600563    8.32170026175769    1.60794140689078
H         0.02170748742016    8.42366751004747    1.60118733022614
H         1.45869638397107    8.15796172786060    0.58753836841997
H         1.56271278502374    9.22243526091336    2.01536150341129
C         1.46838183542558    7.18962644160626    2.40227045353844
N         1.75389480437017    6.27584984632258    3.02952635113309
C        -4.09993288202390   -1.35301914220574    5.13494036605518
H        -3.50186275848362   -1.33626339822069    6.04707123385071
H        -5.14792565928261   -1.16784696841629    5.37262498219234
H        -3.74515059684339   -0.57227252402748    4.46299637777987
C        -3.96286543254036   -2.62428992363882    4.51098464029606
N        -3.85219121308349   -3.65375110549592    4.01884274025810
C        -0.59676983909272   -0.61427443986431   -9.93643324692227
H        -0.64734461785381   -0.22654206403559   -8.91881138450443
H        -1.19439784194844   -1.52519414755342   -9.99821415152941
H        -0.99093431856182    0.12829633188187  -10.62944306899093
C         0.76252554294833   -0.90554136400196  -10.26565907842659
N         1.85497192241168   -1.11884958968118  -10.53531672545359
C        -3.26891826286709   -2.90369298379920   -6.80804730519329
H        -4.33794597724725   -2.71320536759020   -6.72474473175176
H        -2.71275125822764   -2.07011685588680   -6.37416231626499
H        -3.01052050866850   -3.81391740640373   -6.26813975407171
C        -2.90178253231017   -3.03373982778113   -8.18122035121948
N        -2.58778604997881   -3.13035241648740   -9.27858287318314
C        -3.49799618451449   -2.28225901508349   -3.23482947417380
H        -3.17880647450003   -2.34551570170069   -2.19370270160601
H        -2.73094785500533   -1.78837038350151   -3.83407317708491
H        -3.65852776344987   -3.28738921600865   -3.62006337051119
C        -4.70576639902162   -1.53460267128249   -3.29660817524708
N        -5.67175969576732   -0.91776560998087   -3.32923467570927
C        -0.47805191075183    6.16266330021686   -2.81635467734133
H        -0.22561159547668    5.10185616215740   -2.84228627958854
H        -1.11779121868765    6.35881246519055   -1.95621054984088
H         0.43643027506029    6.74927453501464   -2.73315467310604
C        -1.17575249372966    6.48940064149143   -4.01628665621062
N        -1.75889988191146    6.71810706821017   -4.97555642936697
C         0.51028957480020    4.77138376234645    0.17815309777344
H         1.23292555082536    5.44802474732948   -0.27969519999725
H         0.14128172352422    4.06630992166668   -0.56427842069018
H         0.98831864939718    4.22558617013088    0.98969866687781
C        -0.58383964856696    5.52130389521529    0.70001342765900
N        -1.45828160105482    6.12854017446892    1.12453561839082
C        -4.80280328842502    5.83792607949170   -4.07050765897372
H        -3.96453090204366    6.37863798573269   -4.51167824071707
H        -5.44585407527347    6.53236105563819   -3.53224209209170
H        -5.37003683409660    5.33867733807499   -4.85602896652964
C        -4.30496700043789    4.84426760401641   -3.17369935315148
N        -3.90418216751889    4.03859868639092   -2.46536866284582
C        -1.96007459837081    1.41467842823302   -2.68337513055266
H        -2.32460188354291    1.82260705122297   -1.73788470437155
H        -1.55401364035176    0.41703284687754   -2.52199243724793
H        -2.77462286498657    1.36937857525364   -3.40461095399334
C        -0.93185047065681    2.26886280359751   -3.16630438991108
N        -0.10269714915656    2.97072244096681   -3.53528284471445
C         4.27078120836327    8.12105300560824   -2.43330117820120
H         5.17380124513989    7.72220266380713   -1.96400921226451
H         4.26932596133099    9.20737863953632   -2.35824607353295
H         4.22565182070374    7.82513860880206   -3.48073232537268
C         3.13381858430621    7.59167630731615   -1.76264035872696
N         2.21590763992833    7.16617999249299   -1.22270725704674
C        -4.29918140083337    1.54022965420549    7.12695751842873
H        -3.58412164871609    0.78092636334573    7.44589121260817
H        -5.25380792473613    1.06652392890107    6.89378965859238
H        -4.43981233237979    2.26911718143189    7.92435881087405
C        -3.81459413849111    2.19879032883728    5.95857448154615
N        -3.42340140050612    2.73679564656822    5.02551645899631
C         1.39292804385839   -7.13909443672313    6.29215937558027
H         0.94893575342663   -6.96794170345082    5.30999060428400
H         0.73921603505771   -6.71466703145661    7.05391196560997
H         1.49723647420778   -8.21008408418342    6.46262479864650
C         2.67957890694515   -6.51757819311155    6.35916889979504
N         3.71341256180369   -6.02850512181261    6.40662901575854
