30
Energy:   -382.10469103
O    0.01792453  -1.11519639  -1.54581242
H    0.54988571  -0.75595517  -2.25587925
H   -0.63590724  -0.43861236  -1.36982968
O   -1.61271530   0.90511037  -0.76029135
H   -2.19686508   0.48115586  -0.13159154
H   -0.93870802   1.31840799  -0.22072567
O    0.52165303   1.89881305   0.63713552
H    0.12871518   1.65348690   1.47477911
H    1.17345126   1.21820420   0.46931866
O    1.05565228  -1.56542307   2.23570196
H    1.56319488  -1.15162914   1.53755660
H    1.71215322  -1.97433600   2.79964219
O    1.76791644   0.43569973  -3.00872266
H    2.05705482   0.59532416  -3.90713842
H    1.32095115   1.24273800  -2.75349120
O   -0.67271160   0.57628181   2.70344693
H   -1.49595817   0.23875787   2.35049577
H   -0.08857244  -0.18189615   2.71684372
O   -2.76317958  -0.58832288   1.27248447
H   -3.61647852  -0.94949910   1.51261878
H   -2.22926598  -1.35417485   1.06120535
O    2.06832267  -0.28871659   0.01758015
H    2.75577284  -0.05344835  -0.60555143
H    1.36208340  -0.63917252  -0.52522606
O   -1.00906094  -2.53419911   0.64339177
H   -0.66831242  -2.28522670  -0.21575608
H   -0.28688412  -2.36116015   1.24733714
O    0.33460104   2.55982686  -2.11930327
H   -0.57354395   2.25780868  -2.10228746
H    0.55806099   2.70034054  -1.19921991
