30
Energy:   -383.14312985
O    3.54132635   0.48446154  -1.66516799
H    4.33646067   0.08678339  -1.31042111
H    2.93535907   0.51105973  -0.92467623
O   -1.96670124   0.79845183  -1.20120442
H   -1.48438469   1.48146068  -0.73526288
H   -2.50135814   0.37956363  -0.52673684
O    1.74363074  -0.55948273  -3.43880893
H    1.82239806  -0.10989906  -4.28017810
H    2.44677004  -0.19174981  -2.90345907
O    0.61727838  -0.76610487   2.55827704
H    0.86435370  -0.98368711   3.45707824
H   -0.09083576  -0.12885041   2.65162029
O   -0.02408584  -1.08334241  -1.41989666
H    0.48890922  -1.00881957  -2.22457936
H   -0.73516283  -0.45196395  -1.52927034
O   -1.39801308   1.01323886   2.52619453
H   -1.09716551   1.64422288   1.87229717
H   -2.11102033   0.54221246   2.09493284
O   -0.30090326   2.37218186   0.36943823
H    0.42530491   1.75234540   0.30120108
H    0.09162226   3.22381662   0.17741269
O    1.54332405   0.37701196   0.22073518
H    1.02541899  -0.16478650  -0.37463077
H    1.41474072  -0.02178979   1.08134853
O   -3.06744393  -0.54962287   0.96150150
H   -2.40894963  -1.24388120   0.93655202
H   -3.90053036  -1.01217697   1.05229001
O   -1.01094283  -2.28290884   0.87576993
H   -0.64144040  -2.08244977   0.01581880
H   -0.38183783  -1.91820379   1.49822393
