30
Energy:   -381.05720447
O    0.77658722  -0.26553032  -2.41522841
H    1.46011826  -0.35888634  -3.07878083
H    1.01565295  -0.89435543  -1.73430374
O    1.17912089  -1.93229305  -0.33580761
H    1.14279442  -1.30496909   0.38625672
H    0.36096885  -2.42442998  -0.26754090
O   -2.51996448   0.76576019  -0.32252558
H   -1.71656870   1.27932960  -0.40639180
H   -2.39488825   0.25323261   0.47616288
O    0.67346615   0.04838364   1.49610190
H    0.46038952   0.65801018   0.78957117
H   -0.17407673  -0.29008710   1.78478940
O   -1.87422627  -1.01141493   1.73547495
H   -1.77419403  -1.74896068   1.13360149
H   -2.51108383  -1.31444587   2.38263532
O    0.08835477   1.68172749  -0.58082531
H    0.77636585   2.33344541  -0.44615399
H    0.39305123   1.16117003  -1.32406945
O    2.15164641   3.30265906   0.14593297
H    2.40271717   2.82685062   0.93764103
H    2.18597526   4.22508859   0.39926502
O    2.61501018   1.78311363   2.36819419
H    1.93035058   1.13413672   2.20601515
H    3.34883159   1.27609969   2.71557704
O   -1.86434851  -1.13304512  -2.16607472
H   -2.23655799  -0.42185186  -1.64463816
H   -1.00910749  -0.80487014  -2.44373608
O   -1.42377788  -2.90292049  -0.20783451
H   -1.71828456  -3.77148088  -0.48187923
H   -1.63613059  -2.33318312  -0.94711625
