30
Energy:   -382.59563234
O    1.57118103  -1.63156951  -1.74089895
H    1.21272896  -2.13109244  -1.00726362
H    0.81358543  -1.18754103  -2.12184443
O    1.83378505  -0.59664056   1.83604925
H    1.19325575   0.08285844   2.04637081
H    2.34455664  -0.22985313   1.11437674
O   -2.60097525   0.71803193   1.17372242
H   -2.55938283   1.21434405   0.35630197
H   -3.52876257   0.72071656   1.40916949
O   -0.64990287  -0.07804796  -2.19665537
H   -0.21882705   0.56111375  -1.62931261
H   -1.13347374  -0.64478164  -1.59565287
O    0.55784419   1.78547507  -0.52486829
H    0.37043505   1.71560714   0.41120229
H    1.45599014   1.46676275  -0.61424485
O    2.92176587   0.35439350  -0.54271813
H    3.80428352   0.43574649  -0.90434796
H    2.52928329  -0.37101092  -1.02849349
O   -1.86504774  -1.53009885  -0.27412883
H   -1.12192804  -1.97165033   0.13701257
H   -2.12969081  -0.86425200   0.36057099
O   -0.11216160   1.36404689   2.10993575
H   -0.19343110   1.99655549   2.82377046
H   -1.01324108   1.10979516   1.91082855
O    0.50762294  -2.60920435   0.64373545
H    0.98551276  -1.94468744   1.13999188
H    0.72700496  -3.43495041   1.07529868
O   -2.22391113   2.03345305  -1.15701703
H   -1.35616638   2.41520727  -1.02467427
H   -2.08927920   1.35511248  -1.81880261
