30
Energy:   -383.12916023
O    2.42407139  -0.23566622   1.33936828
H    3.10341546  -0.35306349   2.00340244
H    1.62390786  -0.07685631   1.84011730
O    1.23680763  -0.96642766  -2.45567318
H    1.80251496  -1.16956073  -3.20061883
H    1.66044425  -0.22184633  -2.02863395
O    2.20758388   1.11341378  -1.05742292
H    2.37689878   0.73073672  -0.19653815
H    1.44221939   1.67281632  -0.92506795
O   -1.03046804  -2.13839945   1.49777119
H   -1.64015748  -1.68944766   0.91214936
H   -0.28253052  -2.35864302   0.94251082
O    1.22146860  -2.32163313  -0.04085619
H    1.74670092  -1.68512279   0.44413602
H    1.20167331  -1.98392162  -0.93628398
O   -2.67267989  -0.54929654  -0.07996215
H   -2.18307904  -0.33067419  -0.87288530
H   -3.47219998  -0.96766827  -0.39928108
O   -1.78518881   1.65378106   1.29507970
H   -2.45541630   1.96071209   1.90566983
H   -2.18008438   0.89395909   0.86734156
O    0.07514255   0.07529996   2.60941160
H   -0.31508039  -0.76867014   2.38209603
H   -0.52096648   0.72393857   2.23504035
O   -1.20741002   0.28012730  -2.17349219
H   -0.42791312  -0.23440690  -2.38294621
H   -0.86509185   1.11208689  -1.84654671
O   -0.19918216   2.47380377  -0.79751353
H   -0.71831075   2.28299034  -0.01627887
H   -0.31460562   3.41346475  -0.93874567
