30
Energy:   -382.29380514
O    1.00125773   2.17116967  -1.85145848
H    0.69613450   2.70497580  -1.11784913
H    1.35814845   2.80287386  -2.47580668
O   -1.43064777   0.88431763  -1.50435796
H   -1.36565586   0.97524789  -0.55370577
H   -0.63432159   1.29609159  -1.83982579
O    1.48835081   0.17098223   1.91506281
H    1.86624755   0.17217099   1.03561726
H    2.16978990   0.55093806   2.46959520
O   -2.17429177  -1.51810785   1.22831378
H   -2.07623402  -1.66845170   0.28809399
H   -3.00454198  -1.93804217   1.45319507
O   -1.66226735  -1.82105761  -1.39044808
H   -0.73909019  -2.07239023  -1.41886804
H   -1.66406592  -0.88901964  -1.60847066
O   -1.03225283   1.01333966   1.24110395
H   -0.15927492   0.76029335   1.54128554
H   -1.56634269   0.22920919   1.36806568
O   -0.10170297   3.44611753   0.29216832
H   -0.75386545   4.14045464   0.38604013
H   -0.49137905   2.68993954   0.73100684
O    0.44285607  -2.37045880   1.58453747
H   -0.49428849  -2.17607012   1.59885449
H    0.86112698  -1.55635334   1.86474025
O    1.02936148  -2.34581669  -1.04446292
H    1.47315466  -3.15664107  -1.29314603
H    0.86579411  -2.43984935  -0.10604114
O    2.32802999   0.07310730  -0.62776477
H    1.91420706   0.76649114  -1.14176990
H    1.91654381  -0.73360512  -0.93780677
