30
Energy:   -384.07598711
O    0.87762592  -0.22503682   2.87987113
H    1.56238352  -0.74584515   2.46023132
H    0.97543339   0.64901352   2.50211255
O    0.95724161   2.08187536   1.33722021
H    0.90518429   3.02335555   1.50195315
H    0.12081740   1.86355514   0.92616953
O   -3.18557054   1.25154955  -1.78389490
H   -4.07213517   1.08357845  -2.10330170
H   -2.61902166   1.03940141  -2.52568151
O    0.28375040  -2.39877444  -0.01967460
H   -0.40916205  -2.12574453   0.58162303
H    0.25906267  -1.75124453  -0.72417967
O    2.55738841  -1.67044714   1.21697330
H    1.79353726  -2.02843561   0.76463767
H    3.16812763  -2.40520244   1.27497411
O   -1.37368560   0.52634314  -3.69712135
H   -0.87818890   0.74707482  -4.48578629
H   -0.71390092   0.21057466  -3.07970228
O    0.28106349  -0.17529547  -1.63334974
H   -0.29958259   0.28232831  -1.02535101
H    1.16149224   0.09915316  -1.37692235
O    2.56864527   0.59645511  -0.38591842
H    2.15067324   1.22078574   0.20716040
H    2.73954309  -0.17299712   0.15719210
O   -1.40878702  -1.15604888   1.80625789
H   -1.97273995  -1.53311693   2.48154200
H   -0.63700564  -0.84908247   2.28202777
O   -1.31215235   1.07899407   0.18627986
H   -1.55606553   0.32682975   0.72571200
H   -2.05804068   1.20575984  -0.40007574
