30
Energy:   -381.52577779
O   -0.64597240  -0.44600650  -1.44627359
H    0.17838377  -0.13308878  -1.07378029
H   -0.47622833  -0.50837324  -2.38623592
O    0.26559176  -0.44629594  -4.01586727
H    1.08587072  -0.04426836  -3.72995103
H    0.53409932  -1.12556038  -4.63452336
O    1.64798522   0.47140597  -0.30096535
H    1.76157811  -0.19917979   0.37256508
H    1.20706302   1.19174054   0.14952057
O    2.52743270   0.61994807  -2.90993829
H    3.05212006   1.41451397  -3.00791811
H    2.33272343   0.57484772  -1.97383674
O   -0.14018556   0.38182783   3.21863696
H   -0.96850154   0.05623076   2.86634300
H   -0.34541394   0.63592658   4.11838525
O    0.06271552   2.16683682   1.09424348
H    0.01589285   1.68431913   1.91960168
H   -0.79619826   2.03800091   0.69187514
O   -2.34351322  -0.50692478   1.99314998
H   -1.97770358  -1.26749911   1.54155078
H   -2.50820397   0.12917912   1.29710354
O   -0.87186843  -2.32049891   0.58141179
H   -0.85510245  -1.84172672  -0.24727871
H   -0.01646776  -2.14875608   0.97514513
O   -2.27585559   1.28465858  -0.12908256
H   -1.78763810   0.68579871  -0.69409796
H   -2.93720621   1.67083877  -0.70328815
O    1.44764907  -1.34240780   1.78098347
H    2.03606683  -1.83700136   2.35139875
H    0.96891441  -0.76342597   2.37413187
