30
Energy:   -383.32965281
O    1.81615045  -0.61845246   0.67060019
H    1.05365727  -1.10750415   0.97989687
H    1.97896056  -0.95891406  -0.20906487
O    1.02335438   1.85184395  -0.26225582
H    1.34780745   1.00590778   0.04653869
H    0.95246678   1.74975607  -1.21135268
O    0.56481027   0.93303490  -2.79081044
H   -0.35754602   0.70593458  -2.67284363
H    1.03493669   0.11271937  -2.64149394
O    1.64762012  -1.49226744  -1.95769588
H    0.77462636  -1.82551137  -1.75018146
H    2.02990574  -2.15940878  -2.52779410
O    1.39907946   1.46117135   2.56935286
H    1.38291065   2.10682820   1.86288443
H    1.85230975   0.70617286   2.19413102
O   -0.52133291  -1.80125263   1.53598854
H   -0.84587756  -1.03394356   2.00730522
H   -0.60559525  -2.52065192   2.16176515
O   -1.62516426   1.56065419   0.27882030
H   -0.71672488   1.79707369   0.09153559
H   -1.60905696   1.24202661   1.18128851
O   -0.84077366  -2.17668989  -1.20364676
H   -1.35905423  -1.43473493  -1.51528749
H   -0.85745282  -2.09734517  -0.24988680
O   -2.00412348   0.19037249  -2.01079898
H   -1.96330006   0.68599135  -1.19291926
H   -2.81423393   0.48281684  -2.42844622
O   -1.13052387   0.55071129   2.81784279
H   -0.24304993   0.90931446   2.82290398
H   -1.54449300   0.92363553   3.59616722
