60
Energy:   -336.98790024
O   -2.06197830   0.71049064  -1.26268445
H   -1.48928662  -0.07041612  -1.28782714
C   -1.96498784   1.35611727  -2.52216565
H   -2.61606970   2.23332391  -2.47649160
H   -2.30701806   0.72003499  -3.35354522
H   -0.94320311   1.70064668  -2.74584575
O   -2.45687021   1.68632158   1.37501423
H   -2.41700445   1.40900697   0.44768980
C   -1.60167418   0.83157700   2.11702855
H   -1.65854831   1.15784838   3.15904464
H   -0.55055612   0.89820041   1.79533076
H   -1.91249782  -0.22396596   2.07236249
O    2.14574764   1.25096351   1.93651681
H    1.90310197   0.41154194   2.35474854
C    2.13042152   2.25259981   2.94101848
H    2.40592977   3.19134881   2.45282719
H    2.85778546   2.05965775   3.74506599
H    1.13609646   2.38340380   3.39597487
O   -2.19030253  -2.73081429   0.49791904
H   -1.58758353  -2.41514837  -0.19165192
C   -3.47001536  -2.17656312   0.23777582
H   -4.13642167  -2.54225571   1.02368724
H   -3.88128483  -2.49354350  -0.73338750
H   -3.47194102  -1.07587834   0.27336584
O    0.58274159  -0.82915251  -3.87094040
H    1.04272513   0.00852712  -3.71241199
C    0.24668334  -0.88173393  -5.24819630
H   -0.27062680  -1.83142792  -5.40930728
H    1.13182952  -0.85976406  -5.90303285
H   -0.43059354  -0.06824177  -5.55201182
O    1.31987652  -1.15574223   3.11222756
H    0.50626487  -1.67700548   3.18110414
C    2.41351520  -2.05883068   3.14255015
H    3.32172831  -1.45512320   3.06399170
H    2.40190575  -2.76914230   2.30106340
H    2.46519531  -2.63273367   4.08102864
O   -1.04518404  -2.65078983   3.05323906
H   -1.48432957  -2.79510501   2.20191796
C   -2.04139757  -2.68474654   4.06266430
H   -1.52959086  -2.52054792   5.01480816
H   -2.55940300  -3.65508536   4.11642568
H   -2.79755725  -1.89347415   3.94064846
O    1.80156303   1.58551716  -3.16824784
H    1.76207892   1.96114174  -2.27618817
C    3.11207881   1.79924220  -3.66765127
H    3.13903384   1.37015830  -4.67295999
H    3.88455215   1.29954364  -3.06237149
H    3.36857917   2.86739076  -3.74539155
O    1.69294876   2.53028636  -0.53403374
H    1.90238061   2.12079151   0.31853623
C    0.49555380   3.27359417  -0.37194553
H    0.27424027   3.72807644  -1.34145643
H    0.59387922   4.08189174   0.36951551
H   -0.36114194   2.64299618  -0.08699655
O   -0.35232257  -1.55705458  -1.32890376
H   -0.01427991  -1.49365854  -2.23451481
C    0.68940726  -1.15952930  -0.45180262
H    0.29168958  -1.23686912   0.56373881
H    1.00859711  -0.11825740  -0.61504477
H    1.57553985  -1.80963983  -0.52182165
