60
Energy:   -336.54133691
O   -2.50802143  -2.57672540  -1.02914450
H   -1.97373583  -2.07762167  -1.66464245
C   -3.60559045  -3.13456717  -1.73390588
H   -4.19683386  -3.69324250  -1.00329086
H   -3.29197224  -3.83326226  -2.52526301
H   -4.25539662  -2.36812456  -2.18456650
O   -0.29446090   1.64258362  -3.01915549
H   -0.62905478   2.34229367  -2.43874525
C    1.11831171   1.76214283  -3.06724827
H    1.47869851   0.96664190  -3.72511211
H    1.59011198   1.62952496  -2.08104629
H    1.44954620   2.72614259  -3.48410015
O   -1.23341726   3.44826761  -1.05407902
H   -1.26001200   2.88178583  -0.26870371
C   -2.56376462   3.84849358  -1.34135739
H   -2.51547827   4.48576026  -2.22851285
H   -3.01760226   4.43277237  -0.52562029
H   -3.22438999   2.99707888  -1.56817109
O    3.13213666  -0.26205590  -0.90911867
H    2.94258760   0.41643933  -0.24418361
C    4.53227770  -0.49034052  -0.90412027
H    4.72827233  -1.25703578  -1.65860664
H    4.89883840  -0.86347527   0.06499326
H    5.11053182   0.40782470  -1.17188644
O   -1.16769238   1.59578018   1.06822882
H   -0.59745367   1.44640357   1.83695355
C   -1.13212108   0.42256800   0.27145932
H   -1.77958364   0.60802013  -0.58986810
H   -1.51492894  -0.46341425   0.80180915
H   -0.12229570   0.19367737  -0.10355949
O   -1.74843685  -3.12695520   1.61257507
H   -2.04003895  -3.02578691   0.69433955
C   -2.83975437  -2.78290538   2.45113905
H   -2.49405184  -2.90237256   3.48152857
H   -3.71165752  -3.43962913   2.30527557
H   -3.16497640  -1.73908811   2.31902746
O    2.52145241   1.64715100   1.05762698
H    1.94103612   1.46491888   1.81150473
C    2.19390862   2.93615324   0.56394484
H    2.85689361   3.12535941  -0.28466410
H    2.35726211   3.73087034   1.30860430
H    1.15439357   3.00314989   0.20659732
O    0.57429642  -1.84436717   2.53812360
H   -0.19686292  -2.37792765   2.29512202
C    1.59106233  -2.09678724   1.58156468
H    2.45215675  -1.48798647   1.87029158
H    1.29568597  -1.80796940   0.56072463
H    1.90823909  -3.15127455   1.56630859
O   -0.88688065  -1.11857937  -2.79192660
H   -0.69471903  -0.18551392  -2.96767088
C    0.35123012  -1.80793276  -2.72553830
H    0.11635162  -2.85717943  -2.52704721
H    0.99798430  -1.44312282  -1.91227324
H    0.91722066  -1.75734733  -3.66886918
O    0.71143431   0.87685683   3.09337982
H    0.68854651  -0.08712584   3.00044530
C    0.75370088   1.17473883   4.47974688
H    0.77909333   2.26439327   4.56631266
H    1.65161319   0.77199838   4.97404532
H   -0.13369039   0.80992506   5.02032526
