60
Energy:   -336.58165929
O    0.50387362  -2.84605000  -1.60147205
H    0.72667588  -1.96703157  -1.94221977
C    0.55500948  -3.75508795  -2.68939158
H    0.30152751  -4.74002327  -2.28797593
H    1.55624004  -3.81888413  -3.14353334
H   -0.17082020  -3.51200091  -3.48113478
O   -0.56072285  -3.96237857   0.75898529
H   -0.20709627  -3.59711242  -0.06560683
C    0.36875301  -4.92073903   1.23872860
H   -0.04511744  -5.32211262   2.16775803
H    1.35322758  -4.48212919   1.46502169
H    0.51425790  -5.75907411   0.53958629
O    2.16281903   2.06976750  -1.31493112
H    2.57965846   2.10162645  -0.44105861
C    2.92255913   2.89387330  -2.18451631
H    2.43927994   2.84650678  -3.16415034
H    3.96146894   2.54705961  -2.29925073
H    2.94128161   3.94719205  -1.86366368
O   -1.30623390  -0.20908341   2.93879286
H   -1.90510544  -0.16854207   2.17844257
C   -1.44236574  -1.49332776   3.52592004
H   -0.76104797  -1.52183998   4.38060031
H   -1.16216999  -2.30695377   2.83869345
H   -2.46173787  -1.68610937   3.89536969
O    3.05466832   2.07325921   1.32660208
H    2.55467515   1.32972500   1.69482346
C    3.51628654   2.86124648   2.41219797
H    4.07728108   3.69411295   1.97964305
H    4.19110119   2.30704842   3.08321737
H    2.69420010   3.27935587   3.01397514
O   -2.82257080  -0.08324722   0.56059393
H   -2.96585511   0.57726358  -0.13339337
C   -2.70715153  -1.34982310  -0.06789449
H   -2.54615625  -2.08197736   0.72804261
H   -1.85247522  -1.40470034  -0.76020528
H   -3.61780885  -1.63680958  -0.61663790
O   -0.45507984   2.99510816  -0.63273985
H    0.42474445   2.73787556  -0.94605103
C   -0.52109303   2.70164835   0.75364299
H   -1.51842039   2.99749333   1.09024229
H    0.21920118   3.26479223   1.34322826
H   -0.39270199   1.62907857   0.96785583
O    1.40703138  -0.01952815   2.17495371
H    0.52499514  -0.08655698   2.56984925
C    1.44426809  -0.88905523   1.05465471
H    2.44449688  -0.80116746   0.62186917
H    0.71159417  -0.61534844   0.27938002
H    1.28243377  -1.94324527   1.32900913
O   -2.98855820   1.99236135  -1.35826521
H   -2.15215783   2.44554953  -1.17529483
C   -4.03893810   2.91731718  -1.12654865
H   -4.97359569   2.39054822  -1.33729698
H   -3.98555119   3.79593643  -1.78833063
H   -4.07316686   3.26938800  -0.08364316
O    1.01411236  -0.22917123  -2.51781669
H    1.47679599   0.53671300  -2.14664493
C   -0.29908947   0.18509451  -2.85901840
H   -0.80615928  -0.68949837  -3.27549494
H   -0.30967084   0.98061129  -3.62047649
H   -0.87589978   0.53105594  -1.98702190
