60
Energy:   -336.96781215
O   -0.87183025  -3.15398686  -1.37981862
H   -1.13688071  -2.61650244  -0.61871283
C   -0.24670800  -4.32620159  -0.88215551
H    0.04550045  -4.92005800  -1.75246235
H   -0.92135558  -4.93758586  -0.26260950
H    0.66057728  -4.10861862  -0.29711843
O    0.41950811   2.92763559   1.08386360
H   -0.28648439   3.09131171   0.44105103
C    1.63227967   2.77968170   0.36287222
H    2.41676885   2.59599334   1.10200720
H    1.90275096   3.68398486  -0.20445344
H    1.61203377   1.92616985  -0.33274618
O    0.73405726   1.21006359   3.25443679
H    0.59350749   1.87643838   2.56551468
C    1.54341755   1.79611134   4.26142126
H    1.69186232   1.03208053   5.02934461
H    1.06719019   2.66860505   4.73548830
H    2.53331501   2.10105291   3.88740121
O   -0.54953080   1.40911266  -3.04767860
H   -0.59618085   0.46621902  -3.26493105
C    0.75911783   1.85866558  -3.36052795
H    0.79422857   2.92232794  -3.10977944
H    1.00127238   1.75175515  -4.42950347
H    1.53689761   1.34401502  -2.77489091
O   -1.49422449   3.04736841  -0.97986568
H   -1.19673291   2.52523109  -1.73966477
C   -2.89322306   3.24171363  -1.11240515
H   -3.21170207   3.83147128  -0.24855201
H   -3.45648582   2.29541941  -1.10610953
H   -3.16065120   3.79921721  -2.02369505
O   -0.96132116  -1.01091592   3.53776601
H   -0.37393827  -0.24140189   3.57316044
C   -2.18647627  -0.64587468   4.15280553
H   -2.83622543  -1.52391565   4.10427418
H   -2.69283029   0.18264709   3.63325322
H   -2.06483858  -0.36931661   5.21181320
O   -1.42951677  -1.44917950   0.77875298
H   -1.32563258  -1.38278702   1.73959812
C   -1.10551196  -0.18504029   0.22241970
H   -1.22778761  -0.27757871  -0.86015617
H   -0.06507037   0.11426093   0.42410612
H   -1.77238407   0.61777805   0.57390460
O    2.96457009  -0.25783679  -1.01347915
H    2.85791663  -0.38383731  -0.05892576
C    2.23323945  -1.28264626  -1.66727944
H    2.36420278  -1.12573655  -2.74138984
H    1.15525167  -1.24351619  -1.44549459
H    2.60206618  -2.29092706  -1.42209784
O   -0.74180079  -1.35603411  -3.53176958
H   -0.76338517  -2.05954628  -2.86616609
C   -1.78164854  -1.61180539  -4.46227025
H   -1.74300196  -0.81013616  -5.20477822
H   -2.78022681  -1.59934279  -3.99808986
H   -1.65501069  -2.57088952  -4.98848108
O    2.39735587  -0.56427844   1.75174323
H    1.85045183  -0.00099114   2.31921716
C    2.08981281  -1.91429238   2.06063379
H    2.71450333  -2.53500335   1.41258685
H    1.03626772  -2.16646182   1.86256649
H    2.31867380  -2.17408618   3.10605579
