60
Energy:   -336.84565684
O   -2.61537100   1.07181747  -2.07159981
H   -1.84781677   1.16278635  -2.65555908
C   -2.69748019  -0.28847729  -1.67740437
H   -3.56720968  -0.37316788  -1.02022607
H   -1.81123139  -0.62263309  -1.11555004
H   -2.84591905  -0.96996469  -2.52964739
O   -1.54514181  -2.93804523   0.28625134
H   -0.69315312  -2.76869582  -0.14253687
C   -1.58279496  -4.31093223   0.64163462
H   -2.54892689  -4.48437993   1.12328823
H   -0.79099842  -4.58729547   1.35539854
H   -1.51193189  -4.97830559  -0.23150257
O    3.45688473   0.39667221   2.29298863
H    2.58517902   0.23673804   2.68410688
C    3.78588378   1.75833438   2.51697422
H    4.77041948   1.92125262   2.07017190
H    3.85087719   2.00961612   3.58721282
H    3.07551491   2.45149423   2.03981300
O   -0.15408738   1.41240842  -3.40999160
H    0.48103316   1.37435301  -2.67951438
C   -0.10254873   2.72012851  -3.95748199
H   -0.82384195   2.74550064  -4.77880869
H    0.88883671   2.97137550  -4.36590234
H   -0.38583870   3.49706997  -3.23023644
O    0.94204650  -2.39092276  -0.91897195
H    1.75447598  -1.91707722  -0.68691158
C    0.67589001  -2.14300200  -2.29018667
H   -0.24224799  -2.68399046  -2.53480739
H    1.47557031  -2.51101656  -2.95189206
H    0.51075421  -1.07561115  -2.50509197
O    0.81568400  -0.15157647   3.06469500
H   -0.07616155   0.20894144   2.95040751
C    0.76852510  -1.53002786   2.73275888
H    1.78103231  -1.92029470   2.86694584
H    0.47073647  -1.70569759   1.68717799
H    0.09258824  -2.10217618   3.38738320
O    1.50019704   1.19748436  -1.15268302
H    2.14418674   0.53398902  -0.86376352
C    0.55875637   1.36824713  -0.10527513
H   -0.15908019   2.11870704  -0.44733623
H    1.01959265   1.73569346   0.82498852
H    0.00428961   0.44451793   0.12290973
O    3.21741115  -0.85562355  -0.18467220
H    3.41214982  -0.48621334   0.68941945
C    4.45479034  -1.10065928  -0.83381317
H    4.21699795  -1.51644651  -1.81669717
H    5.07968662  -1.83097203  -0.29629550
H    5.04474362  -0.18311073  -0.98493272
O   -1.77354854   0.82726815   2.45762835
H   -2.11240546   1.47007671   1.81700645
C   -2.64566055  -0.29159024   2.44712492
H   -2.24932837  -1.00567117   3.17410114
H   -2.68599512  -0.79011631   1.46599179
H   -3.67296512  -0.03284100   2.74790967
O   -2.79945614   2.42855209   0.37719550
H   -2.79461338   1.99862326  -0.49088342
C   -3.81977476   3.41409874   0.36372409
H   -3.81137762   3.88846681   1.34880765
H   -4.82139197   2.98699989   0.19902170
H   -3.64643532   4.19532080  -0.39286223
