60
Energy:   -337.11098820
O   -1.28530620  -3.16364877  -0.79696626
H   -1.01282116  -2.94975291   0.10770149
C   -2.16591995  -4.27386780  -0.73013122
H   -2.46308498  -4.50143298  -1.75745407
H   -3.07748031  -4.05931481  -0.15064692
H   -1.68787660  -5.17090819  -0.30637370
O   -0.28026550  -0.52799757  -3.74718814
H   -1.07225878  -0.47623079  -3.19176927
C   -0.25905362  -1.81300349  -4.34789072
H    0.63923290  -1.85424144  -4.96987621
H   -1.13123226  -1.99417471  -4.99539264
H   -0.20005074  -2.62709068  -3.60859508
O    2.90991370   0.51851808   1.88078993
H    3.11994872   0.93359037   1.03107024
C    1.68092843   1.06336377   2.33385961
H    1.45936066   0.58501531   3.29176132
H    0.84511929   0.85612543   1.64738115
H    1.73319802   2.15086410   2.49935361
O    3.22326460   1.61088084  -0.74343886
H    2.90557337   0.87050372  -1.28133966
C    4.60889846   1.76852550  -1.00363256
H    4.95047744   2.60639212  -0.38980154
H    4.81896415   2.00946262  -2.05748219
H    5.19742611   0.87997131  -0.72635295
O    0.67067630   2.85613251  -0.51254046
H    1.59052874   2.55650093  -0.56269711
C    0.09690026   2.70189518  -1.80076625
H   -0.93892885   3.04394945  -1.72632064
H    0.08687408   1.65394793  -2.13912017
H    0.60286537   3.30966748  -2.56717962
O    2.03078214  -0.49868240  -2.11325614
H    1.30948489  -0.51363269  -2.75973123
C    1.65245201  -1.32896032  -1.02696029
H    2.47596837  -1.30069389  -0.30827607
H    1.49694345  -2.37711411  -1.32690703
H    0.74258800  -0.97462195  -0.51767732
O   -0.62686690  -2.25731030   1.75836574
H   -0.94267687  -1.43240406   2.15613079
C    0.61371631  -2.58070021   2.36574209
H    0.95513573  -3.51221478   1.90617863
H    0.52529377  -2.74766163   3.45067650
H    1.38423330  -1.81285691   2.19399351
O   -1.29753914   2.67867594   1.47057740
H   -0.65070474   2.78937747   0.75799498
C   -1.43777468   3.93060470   2.12291331
H   -2.16974714   3.78796060   2.92250956
H   -1.81362819   4.71955069   1.45278220
H   -0.49817588   4.28026869   2.57861774
O   -2.29729371  -0.73298166  -1.79442427
H   -2.02782397  -1.60813485  -1.47832900
C   -2.32693385   0.13850653  -0.67542313
H   -2.63226377   1.11956768  -1.04929191
H   -1.34191825   0.24761101  -0.19519630
H   -3.05358674  -0.17650479   0.08977017
O   -1.63249060   0.18839304   2.71728683
H   -1.55658666   1.08097108   2.34855073
C   -2.86292841   0.11604308   3.41965571
H   -2.93229471  -0.89566810   3.82845153
H   -3.73502062   0.28139020   2.76781766
H   -2.91621479   0.82757944   4.25849652
