60
Energy:   -336.51879398
O    1.41723384  -2.18968484   0.71299271
H    1.62963239  -1.44676536   1.29727071
C    1.90100549  -1.87083180  -0.58193258
H    1.65343699  -2.71807042  -1.22720908
H    2.99316184  -1.73148348  -0.60546731
H    1.42670031  -0.97071259  -1.00335556
O   -2.64349760   1.08932671   2.07894817
H   -2.45425312   0.14879539   2.21315188
C   -4.04691628   1.26577970   2.18764097
H   -4.24252072   2.33048008   2.03389702
H   -4.43494345   0.98720162   3.17991437
H   -4.60670037   0.70221674   1.42487240
O    0.47666366  -0.46373980  -3.55880171
H   -0.22777678  -0.82188789  -2.99851884
C   -0.06949123  -0.24465934  -4.84963569
H    0.73718476   0.15870355  -5.46774364
H   -0.89347919   0.48595218  -4.84434752
H   -0.43027205  -1.17189619  -5.32170173
O    2.00125206   0.20429803   2.10997358
H    2.69732561   0.54942112   1.53135890
C    0.93223308   1.13684721   2.10079693
H    0.15704050   0.73258275   2.75740328
H    0.49475288   1.27238590   1.09928923
H    1.22649809   2.12488122   2.48806199
O    3.70797407   1.11230034   0.06304708
H    3.22455945   1.26082066  -0.76319459
C    5.07421452   0.91896733  -0.26641181
H    5.60408306   0.75309219   0.67550642
H    5.52102791   1.79645849  -0.75950853
H    5.23637368   0.03931091  -0.90881848
O   -1.48485527  -1.38809527  -1.76833800
H   -1.48356414  -2.13029670  -1.14579591
C   -1.78677925  -0.21178621  -1.03507633
H   -1.78413345   0.61428113  -1.75137999
H   -1.03872679   0.00829799  -0.25741458
H   -2.78007739  -0.24939560  -0.56102816
O   -1.53593764   2.95366109   0.28819817
H   -1.95066090   2.34088799   0.91344774
C   -1.31445827   4.17856979   0.96869750
H   -0.84693931   4.85712938   0.25004035
H   -0.63466409   4.07057137   1.82834483
H   -2.24824437   4.64445856   1.32050499
O   -1.06143908  -3.35410413   0.25590909
H   -0.15239929  -3.05789812   0.41189606
C   -1.01250361  -4.72836712  -0.09271724
H   -2.04454316  -5.04572433  -0.26494954
H   -0.59167887  -5.35564802   0.70865817
H   -0.44012157  -4.91292217  -1.01526565
O    2.14304862   1.40149523  -2.25331016
H    1.65270714   0.77134296  -2.80185061
C    1.24508000   2.43250631  -1.87488937
H    1.81363471   3.13342377  -1.25768159
H    0.39818074   2.06062891  -1.27718863
H    0.84437156   2.98568197  -2.73872197
O   -2.07244926  -1.64551750   2.29343413
H   -1.86170097  -2.30154590   1.61252652
C   -1.18256116  -1.85080873   3.37901621
H   -1.43378658  -1.10370065   4.13677640
H   -0.12756145  -1.70927817   3.09666531
H   -1.28974032  -2.84793823   3.83401371
