60
Energy:   -338.22876984
O    0.25695022   0.52997286   3.42886394
H    0.96193215   0.49980435   2.76515194
C    0.83954419   0.93431587   4.65753182
H    0.03175773   0.96303918   5.39383421
H    1.28933190   1.93815714   4.60489093
H    1.60485511   0.22909067   5.01771783
O    3.08036791  -1.30008204  -0.61238564
H    2.60340620  -0.91934057  -1.36469325
C    4.35138742  -1.72404906  -1.07853492
H    4.87523109  -2.15025629  -0.21863934
H    4.95897190  -0.89372686  -1.47119696
H    4.28176945  -2.50139730  -1.85549077
O   -2.91823947  -1.79976902  -2.00889562
H   -2.41384290  -2.03843626  -1.21703368
C   -3.16607317  -2.99188137  -2.73689313
H   -3.73497436  -2.70486505  -3.62540777
H   -3.76519195  -3.72045073  -2.16854404
H   -2.24045433  -3.48725381  -3.06947882
O    2.16462643   0.52772580   1.37158067
H    2.58112467  -0.10668065   0.76951677
C    1.63378135   1.58255742   0.58540796
H    1.16846054   2.28797726   1.27919797
H    0.86202482   1.23937952  -0.12127310
H    2.40871337   2.12202823   0.01863732
O    1.37687166  -3.11698780   0.72671144
H    2.04024036  -2.57285356   0.27695243
C    1.60485856  -3.00741992   2.12261639
H    0.84911336  -3.62627247   2.61389627
H    1.49409505  -1.97584972   2.49190177
H    2.59745512  -3.37890882   2.42182434
O   -1.70988050   1.99656942   2.03856590
H   -1.08566108   1.51616503   2.60246749
C   -2.96937755   1.99426910   2.69140252
H   -3.66045293   2.53935495   2.04272584
H   -2.94341844   2.50382301   3.66734221
H   -3.36947455   0.97907426   2.83999309
O   -1.53632164   2.51195042  -0.73092190
H   -1.64166558   2.41215775   0.22687105
C   -2.53449304   1.72287596  -1.35825684
H   -2.40138243   1.84684140  -2.43640309
H   -3.55554271   2.04546776  -1.10102265
H   -2.43917624   0.65115457  -1.12351164
O    0.57271402   2.55552969  -2.58240546
H   -0.17214069   2.61129782  -1.96555486
C    0.60948560   3.76477910  -3.32328162
H    1.45407805   3.68504212  -4.01305753
H    0.77091789   4.64877535  -2.68667532
H   -0.30298339   3.92692968  -3.91816385
O    1.53047204  -0.10053035  -2.59520116
H    1.28039323   0.82717224  -2.71869926
C    0.33666865  -0.86543948  -2.54743867
H    0.63665526  -1.90757289  -2.40797117
H   -0.24776681  -0.80011432  -3.47853756
H   -0.31618528  -0.58270383  -1.70683197
O   -1.31435654  -2.40053419   0.22977745
H   -0.43067422  -2.75563875   0.40706136
C   -1.50280467  -1.27474040   1.07216063
H   -2.50284232  -0.88717548   0.85954983
H   -0.77628070  -0.47065849   0.87622046
H   -1.45659781  -1.53168846   2.14202976
