60
Energy:   -336.66005893
O   -2.77587696  -0.62524321  -0.35136776
H   -3.17120019  -0.30848044  -1.17708210
C   -1.68818703  -1.47018243  -0.69128260
H   -1.25447227  -1.81806954   0.25017970
H   -0.90196706  -0.94492733  -1.25585551
H   -2.00056902  -2.35338645  -1.27020010
O   -3.44868490   0.49938574  -2.86240704
H   -2.57646810   0.89773970  -3.00015779
C   -4.34120565   1.08346751  -3.79770858
H   -5.31864888   0.62355304  -3.62868601
H   -4.04913419   0.89058122  -4.84186684
H   -4.44762801   2.17113106  -3.66191603
O    2.04664873  -0.71117719   3.42671639
H    2.08541893   0.07694413   2.86476894
C    3.04130274  -0.57453230   4.42897651
H    2.98377288  -1.47057501   5.05290197
H    2.87668930   0.30222982   5.07470705
H    4.05896557  -0.51324770   4.01258259
O   -0.83835069   1.54366708  -2.98758142
H   -0.06841070   0.95577984  -2.98551523
C   -0.80388703   2.30226945  -1.78930412
H   -1.67791047   2.95894294  -1.80796288
H    0.09542543   2.93305724  -1.71106605
H   -0.86767568   1.67460724  -0.88666993
O    1.31908405  -0.25242640  -2.77497108
H    1.45473019  -1.03845380  -2.22525812
C    2.53477131   0.01074179  -3.45715930
H    2.36431913   0.89896534  -4.07156158
H    2.83529130  -0.81283279  -4.12363508
H    3.36941809   0.22501693  -2.77142739
O    2.01747750   1.44756630   1.63831397
H    1.39919021   2.19104678   1.58016880
C    1.96166727   0.74408357   0.40765113
H    2.66392008  -0.08987249   0.49037659
H    2.26667112   1.36338123  -0.45038174
H    0.96273080   0.32983822   0.19955489
O    1.09308942  -2.69171208   1.68417058
H    1.45408423  -2.08243385   2.34514414
C    0.15513217  -3.53073168   2.33901108
H   -0.24167306  -4.21057996   1.58017174
H   -0.68901994  -2.96982793   2.76979121
H    0.61174456  -4.13801160   3.13618958
O   -0.12883002   3.28065731   1.43590605
H   -0.79786266   2.58924761   1.54891589
C   -0.77406182   4.53403782   1.59479910
H   -0.00620969   5.30142885   1.46441770
H   -1.21680034   4.66060818   2.59516897
H   -1.55988485   4.70615247   0.84271131
O    1.60338617  -2.44868311  -1.06083325
H    1.46681282  -2.57541471  -0.11019657
C    1.44357594  -3.70982345  -1.69053121
H    1.60070438  -3.54886663  -2.76052595
H    0.43455779  -4.12901729  -1.55292227
H    2.17885373  -4.45357268  -1.34559500
O   -1.86518351   1.10552900   1.67220846
H   -2.26766327   0.50463882   1.02772083
C   -1.27720015   0.31271964   2.69116020
H   -0.82856229   1.00526835   3.40850639
H   -0.48198601  -0.34735384   2.31074622
H   -2.01422141  -0.30484835   3.22799051
