60
Energy:   -339.03312768
O   -2.61949560  -0.04029507  -0.61264160
H   -2.50983599  -0.11767176  -1.57202207
C   -2.00703976  -1.17267088  -0.01669140
H   -2.13979532  -1.06946401   1.06368330
H   -0.92699697  -1.23034013  -0.22395731
H   -2.47186142  -2.12102033  -0.32870340
O   -1.92277066  -0.16245895  -3.35707521
H   -1.06486695   0.28159099  -3.28465871
C   -2.65159561   0.47565291  -4.39349270
H   -3.61502829  -0.03684267  -4.46154382
H   -2.15400698   0.39860892  -5.37290431
H   -2.84484387   1.53952159  -4.18464853
O   -0.74270915  -1.66425017   3.34338622
H   -0.28036555  -2.19406787   2.67708682
C   -1.80008279  -2.45413631   3.86355411
H   -2.31024990  -1.84226443   4.61243829
H   -1.44253794  -3.37099825   4.35782449
H   -2.53642550  -2.73800017   3.09544080
O    0.53096838   1.10486421  -2.81428283
H    1.37558552   0.75575362  -2.49308670
C    0.04754528   2.02123777  -1.84521349
H   -0.90415394   2.40485332  -2.22282826
H    0.72447305   2.87659541  -1.69385486
H   -0.13854012   1.54825320  -0.86826152
O    2.84504095   0.10971563  -1.47611787
H    2.70586020   0.53324602  -0.61607484
C    4.13959221   0.47161894  -1.92965595
H    4.27987785  -0.01383512  -2.89926386
H    4.93859741   0.12513929  -1.25562340
H    4.25197755   1.55780979  -2.07226134
O    2.16225647   1.32486276   0.93616775
H    1.68222944   2.15013622   1.10024406
C    1.50910650   0.29547916   1.66163195
H    2.06262551  -0.62683997   1.46559798
H    0.46713461   0.14336944   1.33924314
H    1.51424484   0.47222806   2.74860515
O    0.58310982  -3.14082746   1.34508059
H    0.88144245  -2.94488552   0.44450985
C    1.60721872  -3.88492186   1.98543852
H    1.25479494  -4.09710176   2.99848461
H    2.55334071  -3.32670367   2.06304623
H    1.81038631  -4.84541816   1.48649251
O    0.40192050   3.51603588   1.22364437
H   -0.46884139   3.09155499   1.22724933
C    0.19650029   4.91972211   1.22477269
H    1.18724125   5.38221612   1.22066723
H   -0.34016078   5.27023505   2.12026858
H   -0.34771694   5.27056512   0.33397859
O    1.52159952  -2.36900998  -1.17811776
H    2.03905961  -1.57037747  -1.35934813
C    0.73775560  -2.64418180  -2.32807557
H    0.16133063  -3.54654336  -2.10679958
H    1.34937666  -2.84058396  -3.22257163
H    0.02854128  -1.83506631  -2.56286163
O   -2.00619396   2.08767329   1.15218060
H   -2.30324839   1.37207032   0.57072181
C   -2.21483375   1.66877396   2.49140671
H   -1.87496276   2.48638209   3.13288147
H   -1.63599554   0.76841979   2.75041641
H   -3.27557823   1.47659140   2.71649415
