60
Energy:   -336.88793607
O   -2.38556885   0.28988147   1.12303792
H   -1.96914125   0.10198162   1.97726562
C   -1.60071696   1.27400385   0.46878687
H   -2.08387080   1.47379142  -0.49149043
H   -0.57232297   0.93427030   0.26937712
H   -1.55140017   2.22049399   1.02959129
O    1.53203176  -2.06156745  -2.49258679
H    0.95662842  -2.41825760  -1.79968969
C    2.20623330  -3.15380676  -3.09673856
H    2.84989199  -2.73424443  -3.87465638
H    1.51669980  -3.86839337  -3.57285499
H    2.84304798  -3.70535090  -2.38748299
O    1.79511426  -0.58525883   3.14326039
H    2.01015251  -0.03913490   2.37259154
C    2.79904511  -0.36438101   4.12094623
H    2.54139972  -0.98700650   4.98201624
H    2.84149423   0.68326864   4.45770376
H    3.80206071  -0.65894934   3.77458439
O    1.07411977   3.51109406   0.16467995
H    0.68651518   3.37553315  -0.71270776
C    0.49388495   4.68274760   0.71521545
H    0.94155109   4.82059952   1.70318158
H   -0.59655168   4.59737333   0.84342042
H    0.70395838   5.58293022   0.11661897
O    0.02017723   0.21018706  -3.22935742
H    0.61643175  -0.54172949  -3.09697411
C   -1.30559721  -0.25007984  -3.02196818
H   -1.96404195   0.60929196  -3.17499050
H   -1.46959344  -0.62823026  -2.00075085
H   -1.59919621  -1.03633274  -3.73497823
O    2.23790387   1.06091603   0.93262034
H    1.90686276   1.95212842   0.74667536
C    2.47910559   0.42309907  -0.31138330
H    2.85141240  -0.57936385  -0.08347781
H    3.24111648   0.94137518  -0.91429839
H    1.56696209   0.31842328  -0.91950709
O    0.00579470   2.86634610  -2.33630912
H   -0.02183916   1.95866924  -2.67362553
C    0.46276821   3.70240527  -3.38736289
H    0.48789920   4.72084931  -2.99034225
H   -0.20815591   3.69287774  -4.26060248
H    1.47795283   3.44298394  -3.72629962
O   -0.99174112  -0.45932779   3.44142483
H   -0.02423197  -0.50779739   3.44134036
C   -1.47701582  -1.54477624   4.21527488
H   -2.56811997  -1.47500552   4.20483477
H   -1.14227169  -1.50282677   5.26358969
H   -1.19356277  -2.52410341   3.79892168
O   -0.27659594  -2.88942906  -0.52533836
H   -1.23223343  -2.73663648  -0.48250516
C    0.28516569  -2.44847203   0.70043263
H    1.36175919  -2.62783020   0.63514635
H   -0.10133309  -3.00366007   1.56943336
H    0.12838767  -1.37290617   0.87750908
O   -2.96817805  -2.03856410  -0.30777212
H   -2.85502715  -1.20343527   0.16990977
C   -4.35951280  -2.30393716  -0.38713531
H   -4.46894794  -3.24783991  -0.92802045
H   -4.90963520  -1.52725800  -0.94113184
H   -4.82712532  -2.42162894   0.60294777
