60
Energy:   -337.99168267
O   -2.92353277  -0.38456084  -0.62527821
H   -2.72811628  -1.01616229  -1.33331442
C   -2.40531256  -0.91821512   0.58269310
H   -2.63408266  -0.19435057   1.36956638
H   -1.31312180  -1.05603578   0.55265738
H   -2.86932366  -1.87857277   0.85689049
O   -1.97367693  -2.10190753  -2.66024658
H   -1.07881756  -1.74506886  -2.76181502
C   -2.47283439  -2.38774892  -3.95703890
H   -3.48132294  -2.78871722  -3.82414616
H   -1.87207203  -3.14346561  -4.48690133
H   -2.54292055  -1.49130767  -4.59285205
O   -0.09741600   1.42479424   3.62854070
H   -0.06188416   0.47987831   3.41807779
C   -1.35814579   1.91410971   3.19997969
H   -1.38129450   2.97952515   3.44460038
H   -2.20081883   1.42714419   3.71528935
H   -1.50792766   1.80987011   2.11394248
O    0.57324021  -0.91892147  -2.71850780
H    1.43313805  -1.10937202  -2.31511276
C    0.18909297   0.38636489  -2.31702033
H   -0.78129498   0.58467378  -2.78016826
H    0.89435955   1.16073229  -2.65721370
H    0.07177704   0.47839344  -1.22589932
O    2.96146325  -1.20583588  -1.19283438
H    2.98197718  -0.32698486  -0.78586591
C    4.18714685  -1.38919578  -1.88320576
H    4.14718462  -2.38382123  -2.33554240
H    5.06138201  -1.35316867  -1.21448141
H    4.33551302  -0.65340238  -2.68904253
O    2.69335262   1.29479219   0.02154523
H    2.08240596   2.02281947  -0.16592135
C    2.46008721   0.86960166   1.35471215
H    3.15642757   0.04938948   1.54925592
H    1.43686793   0.49231113   1.50785096
H    2.65213300   1.66303805   2.09387008
O    0.06944960  -1.32648106   2.93387228
H    0.45737486  -1.78195746   2.17198087
C    0.58331352  -1.93612999   4.10724597
H    0.13618720  -1.41105776   4.95569302
H    1.67789334  -1.84641281   4.18862884
H    0.31522405  -3.00140649   4.18529310
O    0.62376581   3.20353541  -0.36412662
H   -0.30591285   2.93328725  -0.39709327
C    0.78069115   4.07099517   0.74736867
H    1.83334425   4.36580137   0.76963883
H    0.54270907   3.58228340   1.70512787
H    0.17196309   4.98482594   0.66286544
O    1.23537086  -2.49938863   0.66382441
H    1.87284597  -2.15383017   0.02145528
C    0.42111488  -3.44867197  -0.00578901
H   -0.29106202  -3.82780930   0.73214335
H    0.99656310  -4.30306354  -0.39521386
H   -0.15091571  -3.00725770  -0.83687973
O   -2.03776661   2.28399409  -0.48243262
H   -2.40239848   1.38660417  -0.49501070
C   -2.87964470   3.10187631  -1.27920345
H   -2.45448056   4.10889652  -1.25408466
H   -3.90933363   3.15630857  -0.89247982
H   -2.91992919   2.77443606  -2.32988768
