16
Energy:   -497.48814013
O   -0.04909316  -2.71202707   1.92591328
H   -0.37492065  -1.82166117   1.79431975
H    0.03656461  -3.06931681   1.04203624
O    1.52595047   0.60475777   0.51969395
H    0.70923949   0.23469197   0.85475563
H    1.47014451   0.48976315  -0.42893337
O    0.59444761   0.50929092  -2.06327579
H    0.21798202   1.31741660  -1.71479567
H    0.10238929  -0.18983437  -1.63277110
O   -0.40331631   2.39289385  -0.27486640
H   -1.04413334   1.68464150  -0.33782665
H    0.33408513   2.00794511   0.19872142
C   -1.39973939  -0.73170097   0.10461236
O   -0.51705423  -1.44559379  -0.66231810
O   -1.86343347   0.34031775  -0.61153180
O   -0.76584629  -0.28665693   1.23505278
