16
Energy:   -489.86643312
O   -0.14855953  -1.76455425  -1.12875779
H    0.05457554  -1.43969992  -0.25158183
H    0.29695640  -1.15672162  -1.71891616
O   -1.30097316   0.71705955   2.69894212
H   -1.67165689   1.18214250   1.94892660
H   -0.57468688   0.21213614   2.33316565
O    1.55999465   0.06382728  -2.28184549
H    1.20549903   0.51447683  -1.51537326
H    2.18114458  -0.56934659  -1.92199070
O   -1.83628713   0.99898934  -0.02245958
H   -1.97609499   0.07353728   0.17809988
H   -0.88538413   1.10726206  -0.00536156
C    1.23670736   0.18439024   0.86991982
O    2.31378177  -0.46890168   0.33133021
O    0.26886420  -0.72704188   1.20108426
O    0.73542286   1.07080180  -0.04701454
