16
Energy:   -502.95814708
O   -0.18704539   1.84845606   0.33268840
H   -0.24763832   1.41099822   1.18191804
H    0.49499658   1.36803957  -0.13662023
O   -0.37655219  -0.07293671   2.30125399
H   -0.93917997  -0.40635571   1.60231651
H    0.51229964  -0.16428547   1.95799071
O   -1.45562410  -0.54143214  -0.22192552
H   -0.61220615  -0.98816991  -0.14910129
H   -1.23305396   0.38925171  -0.24477207
O   -0.11702083  -0.55367635  -2.68361864
H    0.62962568  -0.33267392  -2.12692413
H   -0.82422186  -0.75090800  -2.06945397
C    1.84723188  -0.59928767   0.01675195
O    2.02625659  -0.02424171   1.24729276
O    1.51675253   0.36807719  -0.89543630
O    0.83879996  -1.52438551   0.08773952
