16
Energy:   -489.98967450
O    2.68928863  -0.32392158   0.22621969
H    2.84493625   0.61839149   0.28987306
H    1.82384499  -0.45100637   0.61492089
O   -1.05788026  -1.65654508  -0.56260712
H   -1.09124038  -0.98052851  -1.23945316
H   -0.60444464  -1.24012368   0.17034663
O    0.96935937   0.74816945  -1.64349706
H    1.60615942   0.20522156  -1.17881962
H    0.35623101   1.03232921  -0.96558947
O   -3.00677631  -0.03355898   0.54390680
H   -2.26332715   0.56512159   0.61529840
H   -2.62111604  -0.86231122   0.25988615
C   -0.02192342   0.92151916   1.31354810
O    1.12136225   1.67514675   1.35715676
O    0.30893885  -0.40588517   1.23853678
O   -0.75788615   1.27221323   0.21211597
