16
Energy:   -489.85648870
O    0.00583538  -2.60845058  -1.62709469
H   -0.76442255  -2.05153795  -1.74015618
H    0.53311865  -2.15774533  -0.96749711
O   -1.34987528  -0.18050308  -1.56149847
H   -0.48499020   0.03122543  -1.91274863
H   -1.19650762  -0.34989691  -0.63197390
O    1.06726589   1.78177705  -0.27505110
H    0.41347819   1.99864397   0.38960087
H    1.18586816   0.83531665  -0.19518841
O   -0.52352722   1.84523894   1.98477749
H   -0.70708565   0.99982640   1.57512424
H    0.34612251   1.74104270   2.37089190
C    0.52449321  -0.99530767   1.03004263
O    1.18266748  -0.34036262   2.03742141
O    1.19598654  -0.81027129  -0.14976966
O   -0.74668898  -0.49650650   0.91570347
