16
Energy:   -492.02424971
O    0.85194548   0.75343974  -1.59334768
H    1.20900354   0.90593304  -0.71842644
H    0.61354189  -0.17358884  -1.59703507
O    0.28231067  -1.88545201  -1.19431826
H    0.82183734  -1.60439552  -0.45529859
H   -0.61560090  -1.69739364  -0.92115036
O   -1.03093571   1.76646610   0.16130352
H   -0.52237588   1.47240261   0.91703192
H   -0.48799198   1.54344904  -0.59480979
O   -1.58506974  -0.88065243   0.57180043
H   -1.67803774   0.05608294   0.39826185
H   -0.71322964  -0.96796359   0.95716189
C    1.27625350   0.19528204   1.70132249
O    0.13844631   0.67593367   2.29405108
O    1.71285002   1.08928570   0.75938846
O    1.00518036  -1.00607676   1.10045928
