16
Energy:   -489.93945147
O   -1.88037526   0.65349180  -0.39716666
H   -1.17961397   0.66824229   0.25471360
H   -1.46558639   0.30802306  -1.18763070
O   -0.29120004   2.73739679  -1.31733665
H   -1.08305149   2.36276276  -0.93152261
H    0.40423273   2.12332910  -1.08169714
O    0.21146736  -1.79516598  -0.93171110
H   -0.01320918  -2.01564279  -0.02775187
H    0.62944228  -0.93608917  -0.87241648
O    0.20519291  -2.01600375   1.82873807
H    0.07657088  -1.08229834   1.66175777
H    1.12023158  -2.17713918   1.59858276
C    1.31409236   0.70402078   0.60178530
O    2.20145356  -0.25845711   1.00574668
O    0.11355083   0.51201908   1.23339765
O    1.13584040   0.62004670  -0.75429538
