16
Energy:   -490.09766454
O    0.32304078   2.45608629  -1.79009609
H    0.20607290   1.51001636  -1.87671050
H    0.25073212   2.62178056  -0.85012337
O   -0.99281110  -1.98685640   1.57628719
H   -1.15854460  -1.18343145   1.08306046
H   -0.86774932  -2.65853949   0.90588938
O    0.33775845   1.78536778   0.90931871
H    1.16783906   1.37866576   0.66073975
H   -0.33171747   1.21014791   0.53897302
O    1.47326719  -1.24651817   0.58696863
H    1.07154542  -0.89361650  -0.20695320
H    0.73306229  -1.47704024   1.14838481
C   -0.99539752  -0.44413430  -1.19951359
O   -1.15994286  -1.80423801  -1.19846724
O    0.31914681  -0.14355879  -1.44184881
O   -1.36250027   0.06085390   0.02032357
