16
Energy:   -485.28238928
O   -1.00746532   1.46324485   0.45493374
H   -1.58473059   0.82893189   0.02991171
H   -0.16222981   1.34691623   0.02102543
O    2.13164521  -1.36662146   0.73242659
H    2.50035587  -0.48356179   0.75456101
H    1.45998176  -1.32924424   0.05146917
O   -2.23397815  -0.32745930  -1.24052465
H   -2.11020302   0.41991948  -1.82561996
H   -1.35018550  -0.66216379  -1.08848742
O    0.15620386  -0.22661480   2.27099092
H    0.78784204  -0.69884258   1.72852803
H   -0.26452788   0.38787025   1.66963846
C    0.88642809   0.14687106  -1.53229438
O    0.01117333   0.83357831  -2.33186966
O    0.25139159  -0.93740686  -0.98624600
O    1.33039172   0.96925968  -0.53012001
