16
Energy:   -490.16242871
O    0.46583518  -0.87139163  -2.87179115
H    1.21024033  -0.52294789  -2.38119990
H   -0.26389081  -0.84293744  -2.25298407
O   -0.06916410   0.02575189   2.71088461
H   -1.02612862   0.00850528   2.72326694
H    0.16883310  -0.43725311   1.90763150
O    1.77523304   0.45239047  -0.79107441
H    1.25782877  -0.24087313  -0.38130588
H    1.14062431   1.14178005  -0.98663927
O   -0.76499646   1.74686625   0.63416595
H   -0.36055303   1.34685237   1.40400117
H   -0.99260279   1.00711551   0.07096434
C   -0.97632650  -1.30242529  -0.04957325
O   -1.87791618  -1.19456931   0.97632222
O    0.29660090  -1.22959375   0.45187484
O   -1.17553314  -0.28125717  -0.94137625
