16
Energy:   -485.33456684
O    0.54481936  -1.69940203  -0.42203684
H    1.32336665  -1.18505150  -0.20863698
H   -0.14097122  -1.34200000   0.14204375
O    2.46594629  -0.10295780   0.73829573
H    1.66374419   0.41842573   0.70892134
H    2.31328298  -0.73906609   1.43707466
O   -1.89224360   1.76366241  -0.50633244
H   -1.11367101   1.63032627   0.03429502
H   -2.43943630   0.99786305  -0.33208167
O   -0.59084564   0.03910449  -2.20969032
H   -0.97266359   0.69943480  -1.63140771
H   -0.19290651  -0.59812185  -1.61654710
C   -0.54481000   0.21779299   1.67661164
O    0.31316450  -0.57971652   2.38711619
O   -1.36204448  -0.56515893   0.90446340
O    0.17626917   1.05969181   0.87098679
