15
Energy:   -142.29993567
O    1.52940690   0.71105633  -1.63994759
H    1.85926968   0.23866113  -0.87557518
H    2.24454720   0.66941612  -2.27482734
O   -0.95005188   1.21136603  -0.61075903
H   -0.12614064   1.05362149  -1.07175662
H   -1.04212201   2.16409630  -0.60301466
O   -0.42547373  -0.34504534   1.63073837
H   -0.56902858   0.38145609   1.02425710
H   -0.99038016  -1.04541528   1.30425021
O   -2.38965335  -1.53013560  -0.02666788
H   -1.98091020  -0.85298811  -0.56577099
H   -3.28881048  -1.22678381   0.09873548
O    2.15817299  -0.39700254   0.79876359
H    2.73547767  -0.36586084   1.56164060
H    1.27807043  -0.47545093   1.16686301
