15
Energy:   -142.68779406
O    0.94666280  -1.25455326  -1.73223832
H    1.27372292  -0.82881708  -0.93976609
H    1.64056756  -1.86544755  -1.98030322
O    1.58353741  -0.08510523   0.67883442
H    1.67530504   0.86768430   0.68046757
H    0.67636915  -0.23928160   0.94247670
O    0.63557107   2.61227591   1.00342751
H   -0.16770449   2.09192815   1.01820681
H    0.73078347   2.93223978   1.90052816
O   -1.16738251   0.02767951   1.15983897
H   -1.67433905  -0.42893472   1.83120352
H   -1.48911483  -0.32922891   0.33198841
O   -1.74660095  -1.22587357  -1.24719757
H   -2.22250842  -1.01719698  -2.05106199
H   -0.83236076  -1.29800847  -1.52141153
