15
Energy:   -143.00602906
O    0.59892242  -1.47108603   0.20440330
H   -0.21560297  -1.07168606  -0.10098155
H    1.20246810  -1.37907103  -0.53281967
O   -1.17320652   1.72153864   1.11547062
H   -0.89159529   2.62826698   0.99393600
H   -0.46660650   1.31609880   1.61803086
O    0.94751569   0.34034623   2.22223890
H    0.92819205  -0.31273025   1.52270366
H    1.25940365  -0.13919563   2.98970053
O    1.28769763  -0.61706661  -2.42681619
H    0.43617251  -0.29190329  -2.13457378
H    1.08024904  -1.24407057  -3.11968195
O   -1.41777934   0.05320292  -1.03249797
H   -1.38070615   0.69584615  -0.32407218
H   -2.32789906  -0.24319848  -1.04025370
