15
Energy:   -141.72502656
O    1.43707802   1.34041838  -0.00116497
H    1.52421078   0.77019466   0.76269669
H    0.68031692   1.89225412   0.19637440
O   -1.11416365  -1.29984892   0.39338929
H   -1.49194777  -2.15452230   0.18591779
H   -0.57588582  -1.08413760  -0.36816008
O    0.29666749  -0.29269308  -1.79341988
H    0.81367418   0.28220190  -1.22912237
H    0.79694206  -0.34265553  -2.60795101
O   -1.66134839   1.40311922  -0.64219809
H   -1.87373977   0.71391835  -0.01281433
H   -1.13797909   0.96330438  -1.31218266
O    1.06868929  -0.64902628   1.98167193
H    0.98024877  -0.89951334   2.90127312
H    0.24253549  -0.91712000   1.57939403
