15
Energy:   -142.11692668
O    1.11052138  -0.11182240   1.14115523
H    1.06743155  -0.10877301   0.18493045
H    1.07189638  -1.03789462   1.38017449
O    0.51909146  -0.40452561  -1.55456175
H   -0.15826527   0.27138956  -1.57819218
H    1.11874396  -0.16819362  -2.26223111
O   -0.85036836   1.75223241   1.40605885
H   -0.64745877   2.32071954   2.14894641
H   -0.17603886   1.07338661   1.43213471
O   -1.31579779   1.59039074  -1.27413569
H   -1.17582488   1.74354308  -0.33969265
H   -2.24551960   1.77268785  -1.41057966
O    0.54800754  -2.85014695   0.57637113
H    0.29220746  -2.21356055  -0.09112863
H    0.83511908  -3.61639757   0.07972357
