15
Energy:   -142.26782140
O    0.13806213   1.48035839   0.99852983
H    0.91763070   1.10614380   0.58808113
H    0.22280520   2.42356605   0.85921089
O   -1.52192028   0.15303880  -0.78018122
H   -1.76136345  -0.44263903  -0.07020464
H   -0.99512621   0.83110727  -0.35716468
O   -1.52509156  -0.87822638   1.83005442
H   -0.90799755  -0.14766746   1.87141253
H   -2.22889220  -0.63215640   2.43034274
O    2.21061350   0.37919816  -0.38337138
H    1.83038004  -0.25491828  -0.99127820
H    3.15529920   0.24128496  -0.45251410
O    0.55632769  -1.28761497  -1.79457041
H    0.20151059  -2.11134547  -2.12894255
H   -0.21469243  -0.77644773  -1.54866823
