15
Energy:   -142.56705354
O    1.63227572   0.26245695   0.31386081
H    1.38261460  -0.65464551   0.20061659
H    2.57619338   0.23661524   0.47065210
O    0.57930568  -2.23310961  -0.03420833
H    0.42735516  -3.16767072  -0.17470180
H   -0.28634350  -1.83368234  -0.11988910
O   -0.77249572   1.31270216   1.24613558
H   -0.76370052   1.58307831   2.16431379
H    0.11761146   1.00306824   1.07860079
O   -1.70201142  -0.81708384  -0.38307680
H   -1.67421514  -0.47161286  -1.27532622
H   -1.59835832  -0.04692943   0.17580607
O    0.05627111   1.65554924  -1.53233078
H   -0.55704089   1.94966394  -0.85884969
H    0.69538453   1.12302803  -1.05884683
