45
Energy:   -623.30842682
O    0.50087117  -1.38452622  -1.77264513
H   -0.04323958  -1.12337252  -2.51559471
H    1.00683394  -0.60071014  -1.55848194
O   -1.47351672   0.46772434   1.60405342
H   -2.15499325   1.03674316   1.24622781
H   -1.49251375  -0.30969751   1.04594391
O    2.09167030  -2.78383209   0.05251429
H    1.43775682  -2.98665005   0.72146412
H    1.57986367  -2.50286752  -0.70600053
O    3.62981622  -0.63590293   0.58270311
H    3.14967574  -1.44905131   0.42622090
H    4.55105822  -0.88041913   0.49463006
O   -3.18516165   1.95037989   0.02150847
H   -3.22959344   1.21482436  -0.58940538
H   -4.06788088   2.32052708   0.01606210
O    0.22040461   1.99794469  -2.95183848
H   -0.23452210   2.58899832  -2.35189754
H    0.99000771   1.70582371  -2.46336303
O   -1.22468617  -0.17789687  -3.56567727
H   -0.75351423   0.64032288  -3.40837088
H   -1.34829561  -0.20505668  -4.51447383
O    1.92425752   0.81549552  -1.05376021
H    1.47308149   1.31956805  -0.37657271
H    2.66176543   0.40879771  -0.59888571
O    0.62457906   2.09062686   0.95918677
H    1.29679717   1.84674225   1.59548462
H   -0.12970007   1.54697849   1.18665392
O    0.17916664  -0.75721196   3.42623279
H   -0.45528907  -0.27023637   2.90035013
H   -0.00503519  -0.49491421   4.32817593
O    2.35492769   0.77807425   2.60345436
H    2.88115493   0.27201177   1.98440871
H    1.70864044   0.15459303   2.93483904
O   -1.43392008  -1.76816230   0.07512352
H   -1.05604824  -2.38694791   0.70006280
H   -0.75819151  -1.66024802  -0.59418751
O   -0.99524932   3.37175490  -0.92528229
H   -1.81354018   2.97235169  -0.63013997
H   -0.36870881   3.17860947  -0.22787732
O    0.10072759  -3.08897109   1.96796625
H    0.01600632  -3.84680380   2.54653668
H    0.17860067  -2.34173025   2.56109251
O   -3.12740878  -0.24007924  -1.55159402
H   -2.74215885  -0.92919408  -1.01035925
H   -2.56632430  -0.20138733  -2.32613839
