45
Energy:   -622.45289511
O    1.66741267  -2.23714829  -0.90625016
H    1.32476485  -1.47329921  -1.37031793
H    1.06080358  -2.94398468  -1.12679401
O   -1.63582524   0.55493100  -0.46245061
H   -1.73351561   1.46086763  -0.16924886
H   -1.34645091   0.08035856   0.31682812
O   -0.33250999  -3.99409225  -1.59570170
H   -0.62283302  -3.36638759  -2.25746543
H   -0.28173897  -4.82837961  -2.06219796
O    3.03905101   0.94424925   1.10912108
H    2.68066849   0.08651858   1.33735761
H    2.64596647   1.54481797   1.74239322
O   -1.70446386   3.06627310   0.61951520
H   -0.81360505   3.35120865   0.41601048
H   -2.23177493   3.86250642   0.55480525
O    0.87115629   3.69936551   0.20149958
H    1.24297431   3.49076725   1.05851182
H    1.35651164   3.14720764  -0.41151243
O   -1.13605713  -2.02349818  -3.23827450
H   -0.53824538  -1.29747813  -3.06009523
H   -1.95849965  -1.76473203  -2.82250988
O    2.31193281   1.87235654  -1.30854552
H    2.62687921   1.49548895  -0.48695473
H    3.10752396   2.12174598  -1.77872792
O   -0.82273322   1.69367826   2.87839876
H   -0.90958250   0.77351320   2.62943027
H   -1.27482622   2.17372415   2.18456902
O    1.65527724   2.73211900   2.68122351
H    0.79741664   2.33548379   2.83283994
H    1.87791949   3.14809835   3.51406411
O    1.83522643  -1.46585856   1.64617714
H    1.82663796  -1.78738391   0.74463427
H    2.28098706  -2.15284307   2.14173903
O   -2.02126663  -2.86526572   0.30628963
H   -2.60795252  -2.43570460  -0.31621238
H   -1.43197248  -3.38600386  -0.23941729
O    0.48433059  -0.04451618  -2.07045717
H   -0.25138414   0.22985609  -1.52303089
H    1.14388865   0.63786700  -1.94568457
O   -0.83690624  -0.84502270   1.71876626
H   -1.27378835  -1.63018135   1.38877874
H    0.08940326  -1.08339052   1.75568967
O   -3.26626662  -1.27864298  -1.62089980
H   -2.79671631  -0.54122036  -1.23107646
H   -4.15698780  -0.95363195  -1.75210753
