45
Energy:   -615.34167199
O   -0.64877012  -1.96028095  -0.07337717
H   -0.10495050  -2.49588678   0.50421997
H   -0.02261891  -1.47638636  -0.61190528
O   -1.08537927   0.06444637   1.68881222
H   -1.95040830   0.41565034   1.47759574
H   -0.97337262  -0.67387978   1.09001272
O    3.06489625  -2.04689494  -0.08075419
H    2.52235369  -1.48870828  -0.63780631
H    2.45002147  -2.43451933   0.54206856
O    4.66609533  -0.52760950   1.48254982
H    5.50734767  -0.41796755   1.03926097
H    4.16202159  -1.09870111   0.90289830
O   -3.45091574   0.80657154   0.59370551
H   -3.34904358   1.53484311  -0.01905417
H   -3.51395236   0.03096942   0.03630118
O   -0.30207396   2.99982982  -1.60925552
H    0.16862354   2.68693917  -0.83674328
H   -0.06280511   2.38396147  -2.30185095
O    0.05181082   0.91890861  -3.42800924
H   -0.87970916   0.71432390  -3.34647720
H    0.20130700   0.98519910  -4.37113612
O    1.20045167  -0.39232344  -1.29634285
H    0.90568432  -0.01842984  -2.12673290
H    1.18212680   0.34197041  -0.68257694
O    0.83108455   1.61375442   0.49883717
H    0.08849141   1.20932744   0.94741949
H    1.54503259   1.57684000   1.13534905
O    0.80423008  -0.81062079   3.45936475
H    0.59428048  -0.62433543   4.37448812
H    0.07281777  -0.44041748   2.96518118
O    2.63488765   1.02954180   2.44210699
H    2.10568906   0.36930338   2.88961782
H    3.41720048   0.55728808   2.15715980
O   -3.14756533  -1.41292054  -1.07527389
H   -3.66786519  -2.21137646  -1.16464978
H   -2.29719042  -1.71506723  -0.75621005
O   -2.96502084   2.69303365  -1.37379395
H   -3.38252174   3.54620095  -1.49224396
H   -2.02654433   2.87822624  -1.40839724
O    1.18535967  -2.94674910   1.75785238
H    1.12769108  -2.25781643   2.41987802
H    1.42841811  -3.73165707   2.24884518
O   -2.57423288   0.49107315  -3.00188114
H   -2.82054362  -0.22978354  -2.42228775
H   -2.83706774   1.28030871  -2.52832343
