45
Energy:   -621.97765818
O   -0.90165904  -3.48418600  -0.58504252
H   -0.01555659  -3.73476933  -0.32377199
H   -0.81847087  -3.23220141  -1.50472472
O   -1.57265618  -1.15490757   0.66695935
H   -0.75071369  -0.99213894   1.12972145
H   -1.48578046  -2.04656970   0.32987908
O    1.48596863   0.33412749  -0.72223231
H    1.66125778   1.26989859  -0.82141908
H    0.62477245   0.20775210  -1.12048128
O   -0.28292693  -2.37377553  -3.06386707
H    0.62839208  -2.28316170  -2.78544536
H   -0.22797189  -2.66421864  -3.97428159
O    0.81276753  -0.45447694   1.79847655
H    1.15773356  -0.12528666   0.96849821
H    0.55772083   0.33181279   2.28110631
O   -1.02755997   2.68120615  -2.08745054
H   -1.62695102   2.96921212  -1.39896322
H   -1.12771070   1.72953157  -2.11019206
O    2.04555251  -2.79550594   2.46392223
H    1.85077120  -2.97337241   3.38406113
H    1.66093130  -1.93458330   2.29926935
O    1.42503885   3.07579315  -1.06589244
H    1.92611494   3.67006584  -1.62445718
H    0.58191318   2.98318627  -1.50950817
O    1.77618088  -3.91355091   0.01463368
H    1.90643988  -3.55019480   0.89055421
H    2.24215565  -4.74953369   0.02987054
O   -2.57754539   1.21453135   1.73680965
H   -1.82674392   1.36530830   2.31108772
H   -2.43892727   0.33454184   1.38661638
O    0.05725770   3.77834640   1.23362610
H   -0.82265362   3.80713918   0.85791493
H    0.63148977   3.60748758   0.48710306
O   -2.46949895   3.39718008   0.15312358
H   -2.59230893   2.60407379   0.67478626
H   -3.30621778   3.85779814   0.21608745
O   -0.18079034   1.78999897   3.02226002
H   -0.06950672   2.16531253   3.89575159
H   -0.03044671   2.52291079   2.42520986
O    2.16274869  -2.04926327  -1.99390567
H    2.14866424  -2.68558012  -1.27896907
H    2.13883494  -1.19758585  -1.55766542
O   -0.99156688  -0.05748118  -1.75770219
H   -0.86969449  -0.81749949  -2.32669352
H   -1.33850945  -0.42083873  -0.94294210
