45
Energy:   -618.51874094
O    0.05659409  -2.16545644   0.71331081
H   -0.17568654  -1.36238652   1.17952564
H    0.72082414  -2.57933114   1.26443514
O   -3.94257101   2.27676278  -0.28105155
H   -3.42653354   2.18914318  -1.08246280
H   -4.51939104   3.02232066  -0.44734629
O    3.84202949  -1.17815040   0.83517343
H    3.30975869  -1.13747598   0.04065142
H    3.78211516  -0.29918979   1.20943319
O    1.63667453  -0.30764389   3.59372429
H    1.82222917  -1.20853747   3.32878644
H    0.78695650  -0.11160048   3.19903694
O   -3.14352865   0.15995186   1.19748660
H   -3.85405153  -0.00835890   1.81640547
H   -3.43695936   0.92090384   0.69640544
O    0.27656479   2.44150178  -2.26805225
H    0.79385307   3.20777603  -2.51598057
H    0.59003334   2.21325876  -1.39290972
O    0.51262421  -0.14736552  -3.25339911
H   -0.40196349  -0.42768331  -3.28779557
H    0.46925498   0.79113864  -3.07020277
O    1.79614985  -0.94975550  -1.00928492
H    1.41670941  -0.80349981  -1.87581022
H    1.14816289  -1.48459771  -0.55071262
O    1.19732797   1.43427618   0.10996840
H    1.42714684   0.61134513  -0.32154015
H    1.90103197   1.57817551   0.74268121
O   -0.48996876   0.20836076   1.90222547
H   -1.42138628   0.31424246   1.70862196
H   -0.04736241   0.77189257   1.26758906
O    3.18275662   1.24931888   2.03924051
H    2.66637277   0.74788489   2.67022666
H    3.75722065   1.79354387   2.57779606
O   -2.37371464  -1.80087738  -0.60340771
H   -1.57660335  -2.13009335  -0.18812191
H   -2.72001991  -1.15926529   0.01678453
O   -2.44049936   1.94314876  -2.49442272
H   -1.52071085   2.20229027  -2.43904569
H   -2.41545528   1.02640118  -2.76860973
O    2.23919608  -2.72427592   2.34705979
H    2.71412585  -3.49185725   2.66563861
H    2.87845110  -2.25020563   1.81523066
O   -2.17162135  -0.74714079  -3.07710043
H   -2.25862470  -1.15378406  -2.21494991
H   -2.68471866  -1.30727634  -3.65951880
