45
Energy:   -616.02007581
O   -0.36117345  -1.93939057   1.69464478
H   -0.06790637  -1.80968811   2.59653366
H    0.42079783  -2.23451126   1.22810803
O   -1.11760738   0.70978704   1.64931314
H   -1.92918339   0.76517488   1.14482487
H   -0.91023862  -0.22448402   1.66848699
O    3.20092204  -1.16485670   2.37438202
H    4.08156641  -1.50940241   2.52265743
H    2.86171060  -1.68011832   1.64248524
O    0.92495565  -1.16502130   3.97327647
H    1.78844075  -1.20821141   3.56247245
H    0.75535255  -0.22875345   4.07753175
O   -3.13416535   0.56995064  -0.13438757
H   -3.13783501   1.13585167  -0.90638135
H   -2.74346803  -0.24905534  -0.43904585
O   -0.15787288   2.35093110  -2.68103272
H   -1.11048687   2.35270687  -2.58746307
H    0.17101549   2.26627994  -1.78610341
O    0.33725828   0.06906862  -4.00311616
H    0.20584012   0.93590577  -3.61898797
H    0.77664798   0.23984288  -4.83618559
O    0.93868556  -0.82515063  -1.48154034
H    0.87278483  -0.60703603  -2.41122575
H    0.94483446   0.02207581  -1.03611762
O    0.73539490   1.52928971  -0.16606290
H    0.00680119   1.32655338   0.42069176
H    1.48766708   1.64103855   0.41516908
O    0.44926359   1.56047611   3.71084158
H   -0.19951307   1.36472659   3.03482175
H    0.03239231   2.22613385   4.25797040
O    2.55108222   1.48954715   1.87219414
H    2.88185943   0.60655790   2.03696150
H    1.92902043   1.64912181   2.58198770
O   -1.60829991  -1.61688762  -0.87865688
H   -1.51389873  -1.99242484  -0.00327578
H   -0.72377743  -1.33984459  -1.11761081
O   -2.88285028   1.85764568  -2.55636225
H   -2.76217750   0.98968349  -2.94147467
H   -3.62837756   2.22822559  -3.02868783
O    1.97686007  -2.55274090   0.33459624
H    1.73301284  -1.96769992  -0.38268852
H    2.06914723  -3.41186642  -0.07725114
O   -2.29634842  -0.62050342  -3.44283774
H   -2.20405735  -1.17073598  -2.66504707
H   -1.40168211  -0.50587834  -3.76325174
