45
Energy:   -615.98201719
O   -1.29934079  -2.30131483   1.33495379
H   -1.86126687  -2.76994452   1.95209004
H   -0.42130396  -2.64388231   1.50207854
O   -1.05355280   0.39273291   1.81624922
H   -1.77717669   0.75276291   1.30343472
H   -1.10944248  -0.55294572   1.67913567
O    2.70510198  -1.89781584  -0.03313701
H    3.02879231  -1.10378229   0.39226531
H    2.13269819  -1.57974244  -0.73128819
O    2.15530454  -0.98201338   3.46265549
H    1.81183040  -1.77477562   3.05060525
H    1.39687094  -0.58736421   3.89307661
O   -2.91335865   1.01375537  -0.03441950
H   -2.85393044   1.71055573  -0.68800147
H   -2.62565234   0.22629026  -0.49632384
O    0.23469325   2.84507289  -2.09887117
H   -0.71540477   2.94978661  -2.04807125
H    0.48468518   2.50314367  -1.24048880
O    0.49011287   0.86992046  -3.90489429
H    0.45699576   1.63902587  -3.33602527
H    1.00982868   1.15071145  -4.65807670
O    0.86146933  -0.64292337  -1.64303682
H    0.86514034  -0.23111806  -2.50711711
H    0.88851980   0.08989020  -1.02782596
O    0.90502014   1.36489814   0.17269138
H    0.22592970   1.09421583   0.79059033
H    1.72827241   1.17939254   0.62443822
O   -0.13509000   0.20691045   4.37836102
H   -0.53182451   0.36214831   3.52119430
H   -0.44697427   0.93056134   4.92176643
O    3.18151138   0.42269836   1.41547364
H    2.85262859  -0.01761541   2.19917750
H    4.01106424   0.81346030   1.69002603
O   -1.75361335  -1.20878435  -1.21289673
H   -1.75570870  -1.75645079  -0.42785601
H   -0.82648057  -1.06795715  -1.40479347
O   -2.53067000   2.69841415  -2.17841253
H   -2.49975035   1.90689729  -2.71579218
H   -3.21614240   3.23348157  -2.57849038
O    1.26276695  -3.09426965   1.88802021
H    1.65566869  -3.95105370   2.05469705
H    1.77932008  -2.72901818   1.16969154
O   -2.21874559   0.37752794  -3.50961639
H   -2.21070828  -0.32386773  -2.85830128
H   -1.30889993   0.44699517  -3.79873060
