45
Energy:   -617.94226056
O   -0.17998381   0.25559615  -3.35064461
H   -0.29355356   0.23300769  -4.30081487
H   -0.56469477  -0.56526959  -3.04338454
O    1.92554709   0.17915397  -1.52674923
H    1.34919845   0.30513153  -2.28052887
H    1.62582683   0.82320384  -0.88518912
O    0.59955158   1.79114191   0.29493794
H    0.37794282   2.45603127   0.94689158
H   -0.14693116   1.78431028  -0.30418533
O    2.16842415  -2.11338684   1.39553828
H    1.81857411  -2.36381074   0.54048000
H    2.35318180  -2.94493770   1.83213834
O   -1.58246968   1.10334540   3.39267539
H   -1.22791857   1.95523669   3.13810400
H   -0.97157118   0.46791987   3.01948741
O   -1.18561924  -1.95661192  -2.19751659
H   -0.38255238  -2.34740930  -1.85314343
H   -1.68043273  -1.69991367  -1.41937941
O    0.02189999  -0.43434380   1.74834171
H    0.33132787   0.34004744   1.27844336
H    0.77624695  -1.02338686   1.76320014
O   -3.75502111   0.76380089   1.84119384
H   -3.04418491   0.85870027   2.47517953
H   -4.53149523   0.59465100   2.37477429
O    1.30410092  -2.46469050  -1.14059542
H    2.07194313  -2.94331999  -1.45294779
H    1.51338995  -1.54448231  -1.30074167
O   -2.86517124   3.07765374   0.58343934
H   -2.53046285   2.71124419  -0.23506306
H   -3.34280690   2.35570719   0.99196009
O   -1.55757606   1.51673081  -1.31614976
H   -1.84828056   0.71041705  -0.89002669
H   -1.16901249   1.22558316  -2.14106385
O   -0.69081826   3.42083161   2.13867200
H   -0.63018267   4.32366570   2.45083508
H   -1.47928942   3.40693679   1.59612983
O   -2.16575971  -0.71997175   0.11527148
H   -1.41023262  -0.77227137   0.70065632
H   -2.86513141  -0.35592169   0.65802245
O    4.14204056  -1.05128088  -0.29759017
H    3.57110010  -0.46345911  -0.79228645
H    3.62308306  -1.30333469   0.46620550
O    3.83042336  -3.37934791  -1.65345895
H    4.09871395  -2.58012916  -1.20013634
H    4.59341084  -3.62655496  -2.17592485
