45
Energy:   -619.57589858
O   -0.67215896  -2.44508395  -0.88677582
H   -0.75848508  -2.56716341   0.05867447
H    0.09871513  -1.88661251  -0.98724784
O   -1.14374573   0.22166158   1.95239720
H   -1.83620643   0.50106064   1.35350974
H   -1.14581853  -0.73367114   1.89267317
O    3.19561628  -1.15693606   1.06169981
H    2.70772405  -1.12758468   0.23869829
H    2.68138338  -1.73524522   1.62504242
O    2.87958466   1.21679991   2.29167313
H    3.70798578   1.68924733   2.37399491
H    3.11393514   0.39469776   1.86102275
O   -2.85280586   0.87078410  -0.06473645
H   -2.95546350   0.12709761  -0.65855769
H   -2.68411594   1.61637628  -0.64081619
O    0.49102808   2.87896116  -1.81948283
H    0.64716959   2.50818262  -0.95093522
H    0.77657133   2.19633717  -2.42670716
O    0.95282155   0.64418789  -3.41824365
H    0.00472317   0.57755993  -3.53183076
H    1.30366935   0.61700898  -4.30841160
O    1.41610892  -0.67332678  -1.02617890
H    1.38576142  -0.33892324  -1.92255223
H    1.16964408   0.07488796  -0.48243113
O    0.80608502   1.47285313   0.51718147
H    0.08169001   1.11234283   1.02856787
H    1.53048336   1.53728845   1.13953746
O    1.59880715  -2.42495676   2.95592993
H    1.38715692  -1.58334021   3.35980815
H    2.07755076  -2.90259196   3.63335227
O    0.92340032   0.01251544   3.84900039
H    0.12438513   0.24439853   3.37567513
H    1.60133393   0.56572276   3.46092883
O   -2.84428318  -1.22798272  -1.88431265
H   -3.45898816  -1.91704762  -2.13642213
H   -2.07682250  -1.69835931  -1.55876417
O   -2.19002475   2.81195065  -1.94625911
H   -2.52440340   3.69875716  -2.08041193
H   -1.24165010   2.92110042  -1.87623265
O   -0.89449691  -2.52754173   1.85305949
H   -1.43677545  -3.10633930   2.38893187
H   -0.01611449  -2.60979707   2.22442215
O   -1.73710481   0.62846183  -3.58498696
H   -2.15479850  -0.07402860  -3.08671894
H   -2.00021004   1.43118976  -3.13483658
