45
Energy:   -618.05995234
O   -2.39836271   0.48303744   2.11813171
H   -1.53272846   0.84495678   1.92859654
H   -2.70699481   0.98243345   2.87416194
O    2.50064326   2.74903139   1.35109211
H    3.05260651   1.98557647   1.18166661
H    3.02614477   3.30141196   1.92984570
O    3.86352964   0.53072489   0.68615739
H    3.19493819  -0.11236452   0.92206697
H    3.88991832   0.50957825  -0.27044509
O    1.55896317  -0.90854015   1.07860624
H    1.32169028  -1.59799258   1.69875845
H    0.99600255  -0.17074145   1.31304232
O    2.15438555   2.96189977  -1.40503608
H    1.25328121   2.64855612  -1.48287290
H    2.29098847   3.06832027  -0.46362960
O   -2.62738275   0.76765263  -2.33886064
H   -2.22656467  -0.08750364  -2.49469538
H   -3.05370432   0.98740944  -3.16722573
O   -1.94207331  -2.25634407   2.22750223
H   -2.19097058  -2.50582776   1.33753601
H   -2.13472330  -1.32003997   2.27702457
O   -3.90354891  -0.23963231  -0.10546313
H   -3.54487780   0.24290074  -0.85027770
H   -3.44843686   0.12076112   0.65560286
O   -0.20038022   1.52103520  -1.31246277
H    0.23902700   0.68899930  -1.48815968
H   -1.07245430   1.41694944  -1.69310014
O    0.63880061  -2.76874252   2.83129051
H    0.67804704  -3.58745248   3.32566443
H   -0.29401775  -2.63358140   2.66451753
O    0.07795235   1.38974970   1.38039279
H   -0.09971507   1.49528040   0.44576484
H    0.83681964   1.94941021   1.54511195
O    1.13399370  -0.82729139  -1.61659762
H    1.96580356  -0.46098099  -1.91683237
H    1.27981522  -1.02775266  -0.69205276
O   -2.78648621  -2.66676939  -0.36348328
H   -3.26447924  -1.84139788  -0.28275917
H   -3.46746924  -3.32672956  -0.49366211
O   -1.39254407  -1.61242980  -2.50982003
H   -1.77192136  -2.11489281  -1.78882375
H   -0.46902436  -1.51786136  -2.27658194
O    3.43208862   0.68096047  -2.05836886
H    4.05405834   0.82839780  -2.77086289
H    3.02952564   1.53667681  -1.91029981
