45
Energy:   -619.32392647
O    0.75312289  -1.29801360  -1.71438174
H    0.28604516  -1.02525407  -2.50411112
H    1.20693233  -0.50859202  -1.41925059
O   -1.70592887   0.64377158   1.46696040
H   -2.35038082   1.10304794   0.92846366
H   -1.57611836  -0.19441725   1.02331575
O    2.20635463  -3.01343666  -0.09366430
H    1.51147766  -3.27931407   0.50857075
H    1.74630378  -2.59396908  -0.82073514
O    3.32341091  -0.84142762   1.03075260
H    3.00986700  -1.64973091   0.62508295
H    4.26204572  -0.98307239   1.15377008
O   -3.20985007   1.91096048  -0.46272300
H   -3.14518967   1.13589747  -1.02069093
H   -4.11179696   2.21175816  -0.57337748
O    0.60199251   2.01086820  -2.86598685
H    0.04630558   2.60841673  -2.36560735
H    1.28939611   1.75180369  -2.25231452
O   -0.78505589  -0.13957010  -3.67906218
H   -0.33297301   0.67698875  -3.46673093
H   -0.78209577  -0.17378855  -4.63564578
O    2.02841959   0.88456568  -0.69335718
H    1.50904762   1.41659415  -0.09050536
H    2.61120168   0.37935827  -0.12646888
O    0.41430711   2.27959417   1.00028448
H    0.74376564   2.38133347   1.89322235
H   -0.33479144   1.68998901   1.08659191
O   -0.00674784   0.94218592   3.62628509
H   -0.71744640   0.80837124   2.99920214
H   -0.44822857   1.06623243   4.46648690
O    1.45733295  -1.31454074   3.03772186
H    2.15414224  -1.03685195   2.44309796
H    1.02199022  -0.50138645   3.29362939
O   -1.26010109  -1.64661778   0.05849808
H   -0.94212972  -2.31564769   0.66473651
H   -0.54784400  -1.53536046  -0.57121892
O   -0.97084430   3.41701146  -1.13255040
H   -1.80734479   2.98629169  -0.95654118
H   -0.44844636   3.25696311  -0.34660081
O    0.15752216  -3.30137304   1.76340263
H    0.58211776  -2.62367077   2.28939698
H    0.04439030  -4.03680418   2.36554386
O   -2.86293322  -0.36230680  -1.85488988
H   -2.47405228  -0.97764448  -1.23330883
H   -2.22418756  -0.30295590  -2.56532165
