45
Energy:   -616.45527081
O   -0.88884328  -1.98254853   0.57313181
H   -0.36546366  -2.35944745   1.28041734
H   -0.24535608  -1.60593086  -0.02713079
O   -1.96167236   0.13405358   1.95959066
H   -2.59805882   0.48209054   1.33499927
H   -1.61871510  -0.65426218   1.53867449
O    2.93839006  -2.11722868   0.57088674
H    3.39203841  -1.32823498   0.86740647
H    2.36129592  -1.81327605  -0.12968945
O    1.92682133  -0.20733358   3.47308569
H    1.53140127  -1.04768264   3.24137837
H    1.24064439   0.43691957   3.29892790
O   -3.54666170   0.89673483  -0.10498447
H   -3.09640838   1.50324645  -0.69290237
H   -3.47481069   0.04569389  -0.53718650
O    0.56539991   2.39634960  -2.19544593
H   -0.37035333   2.52255346  -2.03837809
H    0.93904671   2.26253988  -1.32440352
O    0.57474655   0.05643337  -3.51721842
H    0.62465894   0.93407595  -3.13842547
H    1.12385232   0.10130153  -4.29997096
O    1.03120093  -0.86932092  -0.97761527
H    0.91622297  -0.67241550  -1.90726045
H    1.18078826  -0.01698963  -0.56848588
O    1.54921338   1.50839785   0.25990024
H    1.00746501   1.66228067   1.03389031
H    2.40286500   1.25494698   0.61100340
O    0.11165526   1.68269812   2.60316856
H   -0.66535465   1.15851563   2.40895173
H   -0.21866573   2.42082012   3.11531679
O    3.71996762   0.35678602   1.55690142
H    3.15569036   0.17985984   2.30957674
H    4.54480486   0.65505495   1.94019115
O   -2.93366590  -1.57680258  -1.23179687
H   -3.54609085  -2.31244270  -1.23286522
H   -2.25905339  -1.82707195  -0.60053222
O   -2.19361357   2.37216991  -2.00349577
H   -2.23485881   1.58637184  -2.54852060
H   -2.73625977   3.01232129  -2.46390121
O    1.06155773  -2.63892633   2.43361105
H    1.75995491  -2.54537793   1.78575157
H    1.27449741  -3.44659566   2.90111376
O   -2.18374343   0.05495361  -3.35871113
H   -2.42340863  -0.61077808  -2.71404552
H   -1.24793820  -0.08077059  -3.50730243
