45
Energy:   -616.84996596
O    1.35883060  -2.16063939  -2.47797993
H    0.88433408  -2.64718774  -1.80392088
H    0.91424414  -1.31402538  -2.52063470
O    0.65397687   1.87438784   0.73184691
H    0.66253851   1.08795657   1.27745152
H    0.13141017   2.50475403   1.22762343
O   -3.20702150   2.22412160   0.62444442
H   -2.71809216   1.86063571  -0.11383598
H   -3.51267312   1.45812704   1.11030579
O    0.13721487  -3.18245130  -0.27130395
H   -0.61497695  -2.65541727  -0.00172196
H    0.79574395  -3.02447329   0.40516796
O    2.47240581   1.47268172  -1.28290043
H    3.07763517   2.20993682  -1.36280158
H    1.90717226   1.70495794  -0.54615717
O   -1.69477448  -1.24095685   0.54479561
H   -1.62367660  -0.53866368  -0.10170361
H   -2.45696844  -1.00436982   1.07330180
O    1.65587903  -1.04163393  -5.01871526
H    1.71222782  -1.68074654  -4.30836905
H    1.47298611  -1.56534434  -5.79878542
O   -3.57222723  -0.04453420   2.19228513
H   -4.29690874  -0.33922472   2.74385204
H   -2.91946336   0.28543359   2.80974154
O    0.31919992  -0.41409001   2.16191986
H    1.01935158  -1.06262194   2.08825955
H   -0.39355140  -0.76902287   1.63065714
O   -1.56028528   0.96882350   3.67126264
H   -0.80866000   0.45615203   3.37384166
H   -1.41603630   1.84113769   3.30453106
O   -1.25889026   3.27977487   2.14901161
H   -1.47020079   4.17986651   2.39683160
H   -1.99558284   3.00141319   1.60492461
O   -1.29193868   0.99222070  -0.97122028
H   -0.60870130   1.35917986  -0.41018596
H   -0.85152330   0.81793452  -1.80301982
O    3.18768337  -1.15217988  -0.71358425
H    3.06954307  -0.21857960  -0.88869915
H    2.68001044  -1.59056265  -1.39646095
O    2.15215849  -2.34055848   1.46830981
H    2.81834920  -2.91078270   1.85206249
H    2.59628436  -1.91072870   0.73739913
O    0.52857027   0.41389700  -2.95661423
H    0.85985894   0.16137083  -3.81842059
H    1.26964416   0.84577399  -2.53173353
