45
Energy:   -615.06288423
O    0.76159847  -1.25607590  -1.89717483
H    0.25304952  -0.96036091  -2.65226586
H    1.12712990  -0.45358155  -1.52485583
O   -1.49674310   0.19571418   1.41729851
H   -2.22968667   0.71378194   1.08468557
H   -1.43911694  -0.54982140   0.81973030
O    2.36708107  -2.90010250  -0.27237626
H    1.89660135  -2.50183283  -1.00467535
H    1.67855177  -3.24559325   0.29577459
O    2.75722277  -0.70815344   1.29172396
H    1.95738442  -0.88322519   1.78754685
H    2.87964978  -1.48811378   0.75051667
O   -3.31879027   1.61734821  -0.09921611
H   -3.25330741   0.93437439  -0.76666693
H   -4.24295459   1.86664644  -0.10081223
O    0.27905376   2.18042212  -2.72156135
H   -0.28176094   2.69586800  -2.14187672
H    1.00163013   1.89315928  -2.16335414
O   -0.93399714  -0.00960556  -3.68990138
H   -0.54504536   0.81986903  -3.41255633
H   -0.97715142   0.05273478  -4.64409383
O    1.78215638   0.95930279  -0.65994943
H    1.25816699   1.49327581  -0.06283990
H    2.31954247   0.41398569  -0.08542589
O    0.32761973   2.22323967   1.25705691
H    0.93783111   2.09164580   1.98269937
H   -0.32692007   1.53332220   1.36579224
O    0.51785348  -0.97279278   2.89366794
H    0.93584836  -0.27243444   3.39467724
H   -0.26895741  -0.56912488   2.52731743
O    2.20499742   1.33383908   3.13015201
H    2.72006249   0.79457744   2.53003810
H    2.85646969   1.82501459   3.63071405
O   -1.23944779  -1.94609680  -0.22645620
H   -0.86712323  -2.61580637   0.34721214
H   -0.53651772  -1.74012333  -0.84265105
O   -1.24565657   3.33667011  -0.76889056
H   -2.03506328   2.83028715  -0.57746121
H   -0.68440043   3.20417125  -0.00490925
O    0.29645272  -3.40653561   1.56415745
H    0.38944364  -2.67638822   2.17609644
H    0.20478271  -4.17805496   2.12325167
O   -2.95240771  -0.41711483  -1.83188156
H   -2.54467129  -1.11869620  -1.32417451
H   -2.34888563  -0.26524139  -2.55915551
