45
Energy:   -616.34887423
O    2.20897045  -2.61081786  -1.12101665
H    2.55108012  -3.41494717  -1.51161731
H    1.94168016  -2.07582947  -1.86839552
O   -1.40915139   2.07684417  -0.13292230
H   -0.46423803   2.22189192  -0.08463425
H   -1.64976364   2.35480888  -1.01670577
O    3.70515557  -0.53557528  -0.03329461
H    3.30593894  -1.35306878  -0.33088880
H    3.20494673  -0.29408529   0.74626010
O    1.68061925   0.14604504   1.78047470
H    1.21327681  -0.61099999   1.42733776
H    1.17672199   0.39986000   2.55371293
O   -2.45608987   1.46054386   2.35462761
H   -2.13482481   1.85847363   1.54550926
H   -1.66728708   1.29875625   2.87216676
O    1.47552417  -0.91883332  -3.08123858
H    0.56461540  -0.64206789  -3.18062658
H    1.94181416  -0.12265855  -2.82646175
O   -1.20585902  -0.24385915  -3.18072152
H   -1.43121172  -0.45109927  -2.27380391
H   -1.77660482  -0.80626054  -3.70434901
O    2.92642505   1.15672539  -1.96982315
H    3.67461635   1.66022437  -2.29065082
H    3.29417794   0.58151346  -1.29891265
O    1.27717040   2.18149785  -0.01105210
H    1.83339678   1.92679931  -0.74724006
H    1.47196601   1.53840495   0.67065021
O   -1.21078582  -1.89325053   3.06659653
H   -0.63433175  -2.13104245   2.34038199
H   -2.05416572  -1.70894183   2.65310834
O   -0.23683723   0.52871720   3.74696584
H   -0.15904339   0.60095721   4.69826040
H   -0.56772118  -0.35734135   3.59983355
O   -3.39514275  -0.94954964   1.63635165
H   -4.33119920  -1.01437446   1.82563427
H   -3.15396758  -0.06698380   1.91767695
O   -1.83757290   2.41367005  -2.81475046
H   -1.32769301   2.95950382  -3.41334869
H   -1.61456738   1.51566756  -3.05988698
O    0.30344606  -1.94605730   0.74195716
H   -0.36695660  -1.50964199   0.21628255
H    0.91366657  -2.30859085   0.09974831
O   -1.69711902  -0.58444097  -0.52081370
H   -2.38979440  -0.83455021   0.09064197
H   -1.56358761   0.35015965  -0.36294387
