45
Energy:   -616.41459301
O    2.45213857  -2.01252792  -2.02168629
H    2.40398086  -1.24963019  -2.59779369
H    1.61908947  -2.46533594  -2.15293390
O    1.09987916  -0.03973413   1.79364036
H    0.95801654   0.74755930   1.26802083
H    1.88823048  -0.43670578   1.42330596
O    2.89593913   1.49742081  -1.06686755
H    2.13110879   1.86741377  -0.62599159
H    3.14133984   0.74398463  -0.52989059
O    3.26290782  -0.90022655   0.30369521
H    4.10343418  -1.30060403   0.52605786
H    2.96869735  -1.37563278  -0.47326101
O   -1.03743370   3.34976160   2.13715051
H   -1.86516228   3.02562836   1.78213660
H   -1.24148053   4.22823863   2.45789161
O   -1.59774946   0.67659132  -0.68071039
H   -1.33948162   0.38106590  -1.55374779
H   -1.49711550  -0.09695196  -0.12597131
O   -2.79701083   0.01079719   2.80986649
H   -3.09284420   0.74567402   2.27258582
H   -2.06760894   0.36415979   3.31912046
O   -0.50717317   1.15019777   3.76413272
H   -0.59608421   1.99077163   3.31495318
H    0.18169477   0.69235138   3.28239680
O   -1.21871335  -3.74482942  -0.16997540
H   -1.24757820  -2.92055877   0.31579878
H   -1.47126855  -4.40982751   0.47051291
O    0.53413250   2.10712772   0.23548312
H    0.10998627   2.69896339   0.85682229
H   -0.19014890   1.66699871  -0.20941549
O   -0.07925616  -3.01195913  -2.51744251
H   -0.30384337  -3.69525357  -3.14902873
H   -0.48534859  -3.29845799  -1.69937210
O   -3.21384344   2.10153640   0.99738260
H   -4.08266619   2.26098566   0.62866209
H   -2.74274352   1.63356767   0.30796112
O   -0.57611327  -0.32142993  -2.98182792
H   -0.47857355  -1.26709736  -2.87033375
H    0.30416161  -0.01308183  -3.19693123
O    2.08435200   0.37349244  -3.36854599
H    2.53120972   0.80157921  -4.09881426
H    2.38002913   0.85075076  -2.59328386
O   -1.20232507  -1.33627232   1.09752827
H   -1.82230465  -1.00424346   1.74684637
H   -0.35091601  -1.01162179   1.39067755
