45
Energy:   -618.80032874
O   -0.00588159  -1.81577497   0.51857912
H   -0.18297963  -1.04016603   1.05083743
H    0.60766613  -2.33117319   1.04217793
O   -2.49676182   1.90281760   1.22809137
H   -3.09143331   1.30371187   0.77679323
H   -3.07323062   2.49090627   1.71601276
O    3.87515241  -1.34775615   0.68744565
H    3.35767233  -1.15510085  -0.09443040
H    3.94293969  -0.50871227   1.14312328
O    1.79828942  -0.43509291   3.55692656
H    1.86653870  -1.32299440   3.20592111
H    0.97183770  -0.10176434   3.20749635
O   -4.03594531   0.21112738  -0.17556677
H   -4.26449517   0.61265003  -1.01388436
H   -3.49822559  -0.54514985  -0.41037331
O   -0.84853129   2.29466564  -0.97228566
H   -1.43153828   2.29163663  -0.21312459
H    0.03226646   2.26705556  -0.59856806
O    0.80861528  -0.48655221  -3.60605080
H   -0.06422661  -0.14750247  -3.40749563
H    1.00081641  -0.15550188  -4.48337415
O    1.89027973  -0.68904266  -1.11572688
H    1.60429495  -0.66107595  -2.02877804
H    1.19358647  -1.16182946  -0.66039956
O    1.57064943   1.62674293   0.27026157
H    1.73663990   0.89106436  -0.31919246
H    2.32223247   1.63366886   0.86297298
O   -0.24841461   0.48676038   1.93368239
H   -1.07581014   0.95684799   1.83040545
H    0.37070068   0.96699847   1.38386470
O    3.55531933   1.01721420   2.12093075
H    2.97597077   0.54559038   2.71939384
H    4.17192556   1.47344751   2.69353861
O   -2.20982257  -1.67374122  -1.09290307
H   -2.43632386  -2.54640564  -1.41443975
H   -1.46203664  -1.81822612  -0.51309952
O   -4.19272148   1.30102268  -2.69009647
H   -3.29408672   1.02032546  -2.86300250
H   -4.26572695   2.15193895  -3.12235051
O    2.07429808  -2.77935106   2.07893324
H    2.77490658  -2.35220255   1.58606030
H    2.45238970  -3.61242617   2.36047267
O   -1.60878672   0.42776434  -2.77567877
H   -1.80992419  -0.31985271  -2.21278952
H   -1.31753365   1.11115612  -2.17204049
