45
Energy:   -615.59749117
O    3.13530967  -1.74939157   1.65567661
H    3.47544571  -1.28716045   0.88959456
H    3.91569837  -2.00876641   2.14552356
O   -1.82811779  -0.20914738  -1.05672667
H   -1.25783731  -0.44552516  -1.78825764
H   -1.53118129  -0.76074560  -0.33298641
O    0.23670035   2.06309035  -3.62693361
H    0.07896635   2.77738914  -4.24429012
H   -0.18817471   2.34716263  -2.81760304
O    2.52787939  -2.20785156  -2.37308868
H    2.06990277  -2.56113541  -1.61040933
H    2.83286188  -2.98034576  -2.84897758
O   -0.88121509  -1.68282637   1.03117920
H   -1.62667533  -1.58846243   1.62415166
H   -0.21033045  -1.10526509   1.39527893
O    3.79427402  -0.46199967  -0.61748551
H    3.53470313  -1.05442656  -1.32309531
H    3.13350006   0.23042203  -0.63020614
O   -2.25811856   3.04361028   1.23580620
H   -1.82693472   2.50374194   1.89826716
H   -2.52775736   3.83195991   1.70700853
O   -3.82044761   0.82188114   0.60312966
H   -3.32669707   0.46322533  -0.13430390
H   -3.41821301   1.67441922   0.76931627
O   -2.96883282  -0.76268212   2.60479696
H   -3.70667745  -1.11444968   3.10286998
H   -3.37368836  -0.23332996   1.91769426
O   -1.17470590   1.32969637   3.01707281
H   -1.77754685   0.58684353   3.04844614
H   -0.32892858   0.94299384   2.79045922
O    1.36679083   0.92374327  -0.59472105
H    0.77344649   1.67193462  -0.66093317
H    1.06041308   0.31431725  -1.26625992
O   -0.92115738   2.38736476  -1.09961902
H   -1.29003918   1.50420278  -1.11314638
H   -1.34074686   2.81125904  -0.35096011
O    1.02193114   0.01239199   1.93540268
H    1.16657661   0.41028983   1.07692331
H    1.77409503  -0.56600792   2.06163609
O    0.34827281  -0.53226817  -2.69033451
H    0.47004430   0.23846162  -3.24475235
H    1.12105413  -1.07206044  -2.85666301
O    1.34930751  -3.01192403  -0.06853737
H    0.48474123  -2.74641375   0.24492918
H    1.95149591  -2.72838636   0.61936333
