45
Energy:   -621.71021929
O   -0.41772647  -2.05252727   0.68801019
H    0.13219773  -2.53486129   1.30539914
H    0.20221597  -1.57456439   0.13714295
O   -1.53829945   2.00347639   1.36813122
H   -2.03466978   2.70196312   1.79470435
H   -2.12279451   1.67704416   0.68399720
O    3.27605110  -1.32635635   1.11451370
H    2.78664835  -1.99028592   1.60022382
H    2.75289235  -1.16985427   0.32835604
O    1.17266515  -0.60140636   3.94417892
H    0.27000033  -0.45227858   3.66277359
H    1.68160991   0.06342081   3.48026954
O   -3.07572116   1.00218872  -0.58695876
H   -2.96392485   0.06041111  -0.71652867
H   -2.85797416   1.38865142  -1.43517139
O    0.41874611   2.40626973  -2.42566950
H    0.80965092   1.62643660  -2.81973240
H    0.69126259   2.37405705  -1.50864771
O    1.11242433  -0.10441483  -3.41575903
H    0.19728349  -0.37355502  -3.49521121
H    1.52758077  -0.42631530  -4.21591968
O    1.37952528  -0.61420180  -0.74295858
H    1.37092571  -0.52759517  -1.69619370
H    1.22416308   0.27335027  -0.41993262
O    0.97339757   1.87004869   0.26892896
H    0.11836579   1.97841707   0.68535279
H    1.58031623   1.73931131   0.99748186
O   -1.23231432  -0.36504911   2.71517990
H   -1.04994821  -0.95773434   1.98600319
H   -1.38768606   0.48394019   2.30128543
O    2.68693777   1.02805838   2.27915874
H    3.48316028   1.43606449   2.61944183
H    2.98797190   0.21369804   1.87613574
O   -2.50292753  -1.67102542  -1.05520503
H   -3.15500539  -2.36249773  -0.94166046
H   -1.80688018  -1.89369268  -0.43700666
O   -2.17850101   1.97147704  -2.99971234
H   -2.49280019   2.68158986  -3.55934404
H   -1.27576948   2.21190811  -2.79114453
O    1.47689681  -2.88093626   2.55746222
H    1.63313377  -3.61293006   3.15412539
H    1.37020952  -2.12221180   3.13121029
O   -1.51403380  -0.67479975  -3.45872779
H   -1.86564021  -1.11257720  -2.68351447
H   -1.86388609   0.21491116  -3.41129657
