45
Energy:   -619.70029436
O    0.52994028  -1.70146966  -1.11199140
H    0.14771479  -1.72532073  -1.98924088
H    1.00745082  -0.87247142  -1.08072714
O   -0.07031449   1.39960702   1.04213885
H   -0.49530208   0.54319716   1.08882443
H   -0.75793788   1.99254741   0.73910813
O    2.09631660  -2.62390291   0.98877956
H    1.43986180  -2.70284321   1.68092649
H    1.58652204  -2.52889437   0.18422084
O    3.51092791  -0.32881973   1.03881077
H    3.07444971  -1.18033840   1.06400170
H    4.44366018  -0.53538704   1.09857956
O   -3.34320603   0.33312312  -0.11492393
H   -3.27844916   0.14319066  -1.05085345
H   -2.73745529  -0.28273426   0.29740795
O    0.70558288   1.16958605  -3.36476909
H   -0.00591100   1.77640833  -3.16037968
H    1.21953423   1.12211697  -2.55864718
O   -0.50432916  -1.22131220  -3.62151428
H   -0.03187275  -0.38885500  -3.62715414
H   -0.35391520  -1.58852927  -4.49258208
O    1.76817140   0.70728787  -0.84299217
H    1.14395588   1.07586829  -0.21790393
H    2.51945805   0.45003220  -0.30855813
O   -2.22095918   2.75894009  -0.02306375
H   -2.75672637   3.33512775   0.52209049
H   -2.69178173   1.92554500  -0.02631982
O    0.97496724  -0.79236978   4.65154902
H    1.34631567  -0.12514735   4.07436065
H    1.05443438  -0.42086117   5.53012638
O    1.95083119   1.01287678   2.90011261
H    2.58322138   0.60567175   2.30808342
H    1.23526946   1.29446488   2.33010262
O   -1.18896478  -1.08249722   0.91318391
H   -0.88698943  -1.62704107   1.64017410
H   -0.68497980  -1.38808197   0.15896315
O   -1.55280406   2.63090622  -2.68660606
H   -1.74817258   2.76739931  -1.75955017
H   -1.87825841   3.42031431  -3.11921001
O    0.04904388  -2.59595690   2.85996561
H   -0.25866475  -3.35910288   3.34900085
H    0.35683053  -1.98817471   3.53234945
O   -2.77213788   0.13611389  -2.77972815
H   -2.08511693  -0.44696983  -3.10260187
H   -2.40366119   1.01481464  -2.87106150
