45
Energy:   -621.62249888
O   -0.73690829  -1.70516421   0.24343089
H   -0.24807470  -2.23957257   0.86927534
H   -0.09730301  -1.48236994  -0.43295631
O   -0.79434907   0.71400241   1.50993794
H   -1.60413165   1.09903201   1.17492118
H   -0.78967535  -0.17703286   1.16027216
O    3.05285704  -2.35416083   0.01549641
H    2.47858188  -1.91398157  -0.61114711
H    3.67559473  -2.83708265  -0.52784153
O    1.94531551  -1.07044999   3.77112291
H    1.21281125  -0.48483919   3.96277196
H    2.32344369  -1.27000945   4.62752641
O   -3.07053720   1.51021798   0.29626925
H   -2.86020134   2.06214842  -0.45696608
H   -3.26181269   0.65166744  -0.08127083
O    0.37840527   2.59307024  -2.19924611
H    0.46939906   1.84839515  -2.79372991
H    0.84666455   2.32704159  -1.40792200
O    0.25043977   0.25531644  -3.71504321
H    0.34814696   0.18168613  -4.66439232
H   -0.69458402   0.21818078  -3.56745319
O    1.25712233  -0.88118616  -1.43012641
H    0.97036514  -0.60109464  -2.29935072
H    1.36966812  -0.06645913  -0.94044778
O    1.42827229   1.36462492   0.06711081
H    0.65482538   1.27058078   0.62313906
H    2.15264791   1.05101276   0.60855261
O   -0.16181699   0.58967571   4.15333304
H   -0.65201677   1.26347019   4.62443497
H   -0.44763105   0.67663275   3.24394828
O    3.24288936  -0.03892366   1.54637776
H    3.35054337  -0.84963058   1.04898781
H    2.86435304  -0.31744824   2.38026394
O   -3.15715989  -1.02766953  -0.84539868
H   -3.80227108  -1.72139463  -0.70825314
H   -2.35231272  -1.36769504  -0.45445682
O   -2.29715354   2.84318488  -1.99446914
H   -2.54277523   3.72667123  -2.26897544
H   -1.34050859   2.83908868  -2.02680330
O    1.06206259  -2.90505462   1.88814578
H    1.32482522  -2.34602461   2.61935921
H    1.80617938  -2.87892784   1.28661485
O   -2.37631430   0.32530818  -3.13782957
H   -2.70813857  -0.21583896  -2.42139096
H   -2.48236536   1.22480488  -2.82816732
