45
Energy:   -620.98301582
O   -1.08278376  -1.45002383  -0.52770049
H   -1.34000116  -0.71019866   0.02250835
H   -0.71085614  -2.08582297   0.08357778
O   -0.45379927   0.38429903   3.34558917
H   -0.99939697   0.57092566   2.58156986
H    0.34350313   0.89395132   3.20138351
O    2.70888329  -2.12829916   0.07617954
H    3.33825212  -2.59251002  -0.47575796
H    2.29938530  -1.49183422  -0.50987133
O    2.94391539  -1.04312827   2.61873886
H    2.98012283  -1.43462587   1.74601296
H    2.23046223  -1.50468055   3.05940419
O   -1.52050728   0.88923193   0.81886952
H   -2.13897924   1.35057371   0.25239971
H   -0.67384784   1.29352297   0.62926892
O   -0.33349612   3.26078743  -1.84887805
H    0.17377071   2.99402783  -1.08222850
H   -1.24268446   3.08110815  -1.60945423
O    0.33183133   1.23196827  -3.48441485
H    0.13334928   2.01153527  -2.96565478
H    0.66659320   1.57412582  -4.31332651
O    1.23163961  -0.33777639  -1.38778248
H    1.04689923   0.11832314  -2.20880383
H    0.40566186  -0.76390764  -1.15886160
O    0.92074605   1.88062532   0.18662890
H    1.18888507   1.11209547  -0.31705272
H    1.40473869   1.80919087   1.00935613
O    0.58711493  -2.08337192   3.63867067
H    0.14184351  -1.23810509   3.57960136
H    0.30117828  -2.44721016   4.47658105
O    2.01612215   1.47580922   2.66509807
H    2.42548941   0.61063383   2.65405992
H    2.60492734   2.01316179   3.19499665
O   -2.65661001  -1.90548997  -2.70652806
H   -3.13429825  -2.72671937  -2.58978877
H   -2.11754489  -1.82743889  -1.91941392
O   -2.84948821   2.26677242  -1.19044468
H   -2.77344667   1.70004067  -1.95808043
H   -3.68407783   2.72031912  -1.30871306
O    0.31078089  -3.09749520   1.09386919
H    1.18840603  -2.91544467   0.75791745
H    0.34967296  -2.84466159   2.01625437
O   -2.40301540   0.73740346  -3.35545795
H   -2.56083760  -0.19921562  -3.23684637
H   -1.46271657   0.80312584  -3.52204279
