45
Energy:   -616.28941385
O   -1.07749698   3.77888704   1.27598021
H   -1.48263915   2.91358202   1.21819711
H   -0.92814342   4.03520472   0.36591065
O   -0.89893127  -1.25472829  -1.97007362
H   -0.86003379  -0.30808030  -2.10636894
H   -0.01601479  -1.49296324  -1.68734681
O    2.22632414   3.48247822  -0.43791167
H    2.37810580   2.55968642  -0.64199373
H    2.11822114   3.50334628   0.51293538
O   -1.60564073   1.07591793   0.77108077
H   -1.32987487   1.21493817  -0.13493159
H   -2.03241081   0.21915771   0.76326644
O    1.40895253   3.36915883   2.21737900
H    0.51145255   3.58951395   1.96804136
H    1.58503252   3.91277523   2.98530406
O    1.65676000  -1.95000565   1.73159254
H    0.84058938  -2.43460298   1.85513522
H    1.43114873  -1.04315492   1.93884397
O   -0.21370479   4.18291190  -1.34012749
H   -0.17184532   4.95798179  -1.90025810
H    0.69392926   4.02547309  -1.08004039
O   -2.33562269  -3.61873897  -1.79381307
H   -1.94817393  -2.83728863  -2.18808542
H   -2.88713293  -3.28277954  -1.08727251
O   -0.50413734   1.46222352  -1.69787709
H   -0.51535466   2.41738838  -1.75924574
H    0.39802428   1.24755861  -1.46069522
O    1.49169899  -2.12961564  -0.95322323
H    1.66145298  -2.06817253  -0.01320186
H    1.20302092  -3.03247060  -1.08645137
O   -0.67030779  -3.42337713   1.56240149
H   -0.90862500  -4.10196704   2.19402834
H   -0.39268869  -3.90668574   0.78421625
O   -2.31637329  -1.55466259   0.35454446
H   -1.78754941  -2.16375430   0.86989332
H   -1.82958560  -1.44614112  -0.46245779
O    0.01865017  -4.54401346  -0.85883530
H    0.21945698  -5.40341616  -1.22942330
H   -0.82316435  -4.30591118  -1.24727766
O    1.92633176   0.70195040  -0.74754994
H    1.65810498   0.65395664   0.17004629
H    2.07524680  -0.20871594  -1.00199634
O    0.89790826   0.69779377   1.77685288
H    1.15656589   1.56362669   2.09254487
H   -0.02393511   0.79492349   1.53810100
