45
Energy:   -618.18834697
O    0.06194370  -2.22001529  -3.57975262
H   -0.32858934  -2.90519484  -4.12219596
H   -0.67042401  -1.64697647  -3.35282557
O    2.70658091   0.09062076  -1.76124121
H    3.65018391   0.24081194  -1.81858094
H    2.41281934   0.05914596  -2.67170555
O   -1.81565190  -0.42010858  -2.92553873
H   -1.46201765   0.40883628  -3.24806793
H   -1.79099964  -0.33684806  -1.97228545
O    0.14240083  -1.79665443   1.15857263
H    0.60331594  -2.11789682   0.38359365
H    0.79869972  -1.28752911   1.63427741
O    0.67509816   1.77696327  -0.98854554
H    0.80328690   2.08400544  -0.09103532
H    1.44233412   1.23353192  -1.16816514
O    1.77317035  -0.19857195   2.69299571
H    1.14270451  -0.14482540   3.41122686
H    2.60772111  -0.39163016   3.12017881
O   -0.33612270   1.85456651  -3.53679784
H   -0.57074458   2.73686069  -3.82444589
H   -0.00912174   1.97194830  -2.64487647
O   -2.80960186   0.53156477   1.96352570
H   -2.65247480  -0.30968871   2.39228613
H   -2.41098184   0.43810793   1.09830911
O    0.95597871   2.23617501   1.66459003
H    0.19585177   2.38146608   2.22791001
H    1.35654114   1.43571056   2.00376292
O   -1.30078173   0.03134990  -0.27055274
H   -0.64121327   0.69027069  -0.48740450
H   -0.81345642  -0.65520740   0.18484265
O    1.43579754  -2.29381520  -1.16712211
H    1.97482896  -1.51598807  -1.31086473
H    0.95729844  -2.40925714  -1.98806280
O   -1.80296683  -1.80302099   3.09188078
H   -2.17325105  -2.67073862   3.25370651
H   -1.15341251  -1.94393166   2.40307368
O    1.61430828  -0.01383098  -4.20574648
H    1.12313030  -0.83282779  -4.14078301
H    0.94721627   0.67074983  -4.15505901
O   -1.26733573   2.24906142   3.32904643
H   -1.87420900   1.70829546   2.82356759
H   -1.80960019   2.95671568   3.67748085
O   -0.19669527  -0.02033079   4.50060009
H   -0.81915863  -0.67383732   4.18169505
H   -0.58291304   0.81980855   4.25314594
