45
Energy:   -616.52080507
O   -0.61017363  -1.90447054   0.14918583
H   -0.13766124  -2.36264364   0.84419756
H    0.07113061  -1.63462979  -0.46664073
O   -0.98937140   0.48533651   1.40380953
H   -1.78712672   0.80803516   0.98466292
H   -0.87552300  -0.39860366   1.05463885
O    3.16216088  -1.97335678   0.45208719
H    3.29715533  -1.15435051   0.92878109
H    2.68084575  -1.71669026  -0.33448125
O    1.71883587  -0.83640895   3.95978983
H    1.90922967  -1.20158178   4.82386786
H    0.89191617  -0.36803737   4.07408645
O   -3.16578164   1.12821984  -0.04763023
H   -2.90600483   1.73958486  -0.73681865
H   -3.22133950   0.27999611  -0.48770030
O    0.50884141   2.50782177  -2.29684616
H   -0.42588386   2.68380832  -2.18937870
H    0.81800552   2.30539183  -1.41385605
O    0.54193478   0.24192582  -3.74475841
H    1.03671637   0.36619325  -4.55468473
H    0.58361992   1.09128685  -3.30534967
O    1.38175168  -0.86298712  -1.37523156
H    1.15888872  -0.61669906  -2.27295431
H    1.38836007  -0.03558517  -0.89398921
O    1.24871785   1.38808110   0.14784786
H    0.44210306   1.19395371   0.62525647
H    1.94921174   1.18668492   0.76831522
O   -0.64797915   0.46251322   4.10058482
H   -0.83680787   0.51301604   3.16355492
H   -1.43614973   0.80399092   4.52297323
O    3.11964367   0.38366444   1.93003106
H    2.65696589   0.00179656   2.67591178
H    3.89298902   0.79729941   2.31353456
O   -2.85742411  -1.34056960  -1.31066743
H   -3.45705567  -2.08665859  -1.31567400
H   -2.10332626  -1.64214400  -0.80408954
O   -2.25502103   2.59109708  -2.19744213
H   -2.29432831   1.79629563  -2.72939837
H   -2.80410562   3.22033923  -2.66519450
O    1.10674704  -2.78074762   2.06366767
H    1.26044166  -2.18049678   2.79326258
H    1.87971841  -2.68506095   1.50725849
O   -2.21260521   0.24435944  -3.49943146
H   -2.42881418  -0.40293469  -2.82824159
H   -1.28090249   0.10895579  -3.67213857
