45
Energy:   -614.92717759
O   -0.78253864  -1.82591322  -0.01906488
H   -1.28736606  -1.33978585   0.63290237
H   -0.18570730  -2.36906944   0.49572198
O   -2.32011669  -0.35077676   1.70591716
H   -2.83255338   0.08416424   1.02439914
H   -2.96413569  -0.59777085   2.36959275
O    3.31623694  -1.88042886   0.45475126
H    3.58550503  -1.19152831   1.06232231
H    2.81235061  -1.42317300  -0.21848532
O    1.61746511  -1.19830971   3.56307589
H    1.36040929  -1.88818101   2.95133105
H    0.94371839  -0.52575403   3.46324572
O   -3.65521221   0.63098969  -0.40225414
H   -3.45023219  -0.05836844  -1.03391892
H   -3.28452597   1.42582826  -0.78573192
O    0.26055776   2.89653075  -1.15799510
H    0.61077759   2.37435314  -1.87973499
H    0.74570461   2.59838937  -0.38859526
O    0.87837924   1.07708054  -3.17169503
H   -0.04504567   0.95362866  -3.39141740
H    1.31063179   1.20695281  -4.01580567
O    1.42637830  -0.51948738  -1.01275401
H    1.25016521  -0.05772436  -1.83248306
H    0.59628043  -0.94192864  -0.79204436
O    1.59011339   1.45797888   0.83387679
H    1.53409645   0.76050409   0.18071306
H    2.36368900   1.23880296   1.35327504
O   -0.10926228   0.78151919   2.88667854
H   -0.91974857   0.47746080   2.47815398
H    0.40573727   1.13726080   2.16248573
O    3.56902070   0.16855056   2.32029047
H    2.92504935  -0.30266646   2.84895603
H    4.25445533   0.41573328   2.94102546
O   -2.60839495  -1.36571684  -2.02740542
H   -2.99922340  -2.18502611  -2.33107841
H   -1.95090029  -1.63648593  -1.38661161
O   -2.39014577   2.72985512  -1.66565802
H   -2.72276517   3.62276099  -1.75684623
H   -1.47619184   2.83983938  -1.40331566
O    1.15050521  -3.04839174   1.53569393
H    1.95571177  -2.71090295   1.14329672
H    1.35559666  -3.95564475   1.76166142
O   -1.76062756   0.79415698  -3.54355240
H   -2.08512207   0.00079828  -3.11750411
H   -2.08829870   1.51006461  -2.99918145
