10
Energy:   -322.15393561
O    0.12641118  -0.71727061   1.44547958
H    0.77831989  -0.38910591   2.06479760
H   -0.31886174  -1.42162350   1.91649008
O    0.34290621   2.07282734  -0.36182475
H    0.36696881   2.91015781   0.10134966
H    1.03421763   2.14278866  -1.02017556
O   -0.56106884  -1.27176918  -1.30572837
H   -1.37434897  -1.76954763  -1.22191966
H    0.09930967  -1.92711806  -1.53078371
Li  -0.50055750   0.36650008   0.03787968
