10
Energy:   -322.97678461
O    0.17201222   0.03897828   1.43602656
H    0.67061236   0.71530884   1.89450963
H    0.03300784  -0.64338768   2.09275049
O    1.57529641  -0.62403631  -1.21703356
H    2.26368681  -0.14834319  -0.75220396
H    2.02740844  -1.36251792  -1.62504269
O   -1.88831542   0.55168906  -0.53816997
H   -1.96149382   0.78913122   0.38622064
H   -2.71151870   0.84652907  -0.92757667
Li  -0.11697237  -0.16370824  -0.64882158
