10
Energy:   -328.13587227
O    1.68540133  -0.29174489  -1.39065253
H    2.21015526   0.27721769  -1.95381036
H    1.79138908  -1.16554115  -1.76678889
O    0.40520224   0.89647009   1.60040588
H    0.26116199   0.50996884   2.46417729
H    0.05787361   1.78536635   1.67428475
O   -1.85343797  -0.58590081  -0.09182082
H   -2.64492345  -0.11593798   0.17070067
H   -2.17243908  -1.31431243  -0.62463097
Li   0.14676567  -0.00661576  -0.16498689
