10
Energy:   -319.41005651
O    1.35999154  -1.56619420  -0.42160154
H    2.06796272  -1.27093100  -0.99416445
H    1.68888700  -2.37596521  -0.03130610
O    0.65307243   1.51771175   1.00180050
H    0.29763958   2.40002586   1.10867023
H    1.53865237   1.57056914   1.36122520
O   -2.10339919  -0.12511483  -0.59191766
H   -2.84804865  -0.05168344   0.00502193
H   -2.37529911   0.35378797  -1.37483169
Li  -0.25958955  -0.40316422  -0.06372962
