10
Energy:   -328.36481322
O   -0.28345534   1.98472322   0.22740919
H    0.39918408   2.11465641   0.88570444
H   -0.80754428   2.78486334   0.26399347
O   -0.63357581  -1.37771640  -1.54501914
H   -1.14564329  -2.06803432  -1.12373549
H   -0.25279230  -1.79799372  -2.31612401
O    0.78014215  -0.49279243   1.12576748
H    1.72549216  -0.63238693   1.18107190
H    0.44070065  -0.81515821   1.96068761
Li  -0.16667307   0.26787012  -0.62604410
