10
Energy:   -321.11757361
O    1.38731621  -0.30727901  -1.01758642
H    2.31069702  -0.14255908  -0.82662286
H    1.39954601  -0.97147951  -1.70673080
O   -2.03149874  -0.24403330  -0.82681463
H   -2.61340852   0.47290417  -1.07903186
H   -2.34766578  -0.99681882  -1.32639867
O    0.61056283   0.62257866   1.85983458
H   -0.08668238   0.80922648   2.48851857
H    1.39872893   0.53213429   2.39541451
Li  -0.01041962   0.21027308   0.03495700
