10
Energy:   -331.19045045
O   -1.70564161   0.74884876   0.96759287
H   -2.20008805   1.56843505   0.97332718
H   -2.20084047   0.16579308   1.54296754
O    0.64099592  -1.45629456   0.57937453
H    0.56969980  -2.40944241   0.52781992
H    1.40224067  -1.30249348   1.13891318
O    0.97871571   0.80454401  -1.63638035
H    1.44884210   1.63794290  -1.61070298
H    1.48398344   0.26255128  -2.24233435
Li  -0.41847496  -0.08223910  -0.21629926
