10
Energy:   -325.10846364
O   -1.44230991   0.13236032  -1.12507460
H   -1.25925478   0.82306296  -1.76198318
H   -2.19528981  -0.33463131  -1.48725128
O    0.95359712  -1.08357846  -0.74046724
H    1.83335293  -1.41824401  -0.91442281
H    0.51745929  -1.10087345  -1.59235721
O    0.52063194   0.84977617   2.04790517
H    0.16612002   0.78933664   2.93497913
H    1.12300971   1.59296008   2.08031738
Li  -0.26479668  -0.21970900   0.51750156
