10
Energy:   -322.46218236
O    1.41422150   0.12873570   0.62347766
H    1.77731064  -0.16490290   1.45904602
H    2.17500608   0.41750963   0.11944564
O   -1.31115025   0.35386744   1.42952982
H   -2.04614010   0.76248828   1.88675053
H   -0.74184912   0.03307100   2.12897082
O   -0.27767992  -0.36340957  -2.14314719
H   -0.93660059  -0.18785924  -2.81488931
H    0.26907940  -1.05392006  -2.51795563
Li  -0.25589020   0.01052741  -0.13762487
