10
Energy:   -320.97271464
O    1.03840867  -1.22695643  -0.99547309
H    1.90962157  -1.15671792  -1.38571211
H    0.58744218  -1.87963202  -1.53108082
O   -1.65450874   0.46942502  -0.84163499
H   -2.12661429  -0.02006856  -1.51524039
H   -1.90414140   1.38173750  -0.98860885
O    0.68260092   0.61554075   2.04166430
H    0.25034428   0.83354476   2.86741263
H    1.22308757   1.38053005   1.84444010
Li  -0.04800176  -0.36081443   0.44278194
