10
Energy:   -319.47559192
O    1.20323575  -0.15845851  -1.92666824
H    1.85762084   0.30435374  -2.44994333
H    0.71527460  -0.68279505  -2.56164616
O    0.47495645   0.34888461   2.06084750
H   -0.23630323   0.49213292   2.68520433
H    1.27160050   0.53527195   2.55768737
O   -1.50398235  -0.34694769  -0.15279432
H   -2.11960091  -0.36664018  -0.88550015
H   -2.05916262  -0.33487766   0.62686011
Li   0.33979299   0.33225175   0.06330161
