10
Energy:   -327.98704621
O   -0.16221864   1.79841383  -1.22936700
H   -0.21680504   2.73089819  -1.02026154
H    0.40260530   1.75818977  -2.00111034
O    1.33786218  -0.29399189   0.66660982
H    1.71753816  -1.15863735   0.51019299
H    1.96940514   0.14607390   1.23558032
O   -1.41186021  -1.38527520   0.56041016
H   -1.24143987  -1.76072205   1.42425530
H   -1.78641580  -2.10663506   0.05486104
Li  -0.54108755   0.23307487  -0.22547736
