10
Energy:   -322.67716051
O   -1.62309470   0.56754201   0.97629068
H   -2.55697754   0.76493858   0.90467167
H   -1.55772683  -0.01137635   1.73577236
O    1.59927880   1.16281146   0.22796661
H    1.98473099   1.64159511   0.96174088
H    2.34307593   0.94532672  -0.33390354
O   -0.00287165  -1.53923818  -1.16927522
H   -0.63759685  -2.24228731  -1.03115324
H    0.51926527  -1.83072977  -1.91669580
Li  -0.06036035   0.49300562  -0.42245943
