10
Energy:   -332.89785643
O    0.30376392   1.46628294   1.21537428
H    0.46603191   2.36907952   0.94177002
H    0.12151800   1.52874618   2.15298646
O    1.43223501  -1.46085915   0.05067241
H    2.30647990  -1.31908686   0.41375414
H    1.51998222  -2.24885668  -0.48560380
O   -1.68474846  -0.11292698  -1.25113932
H   -2.08217791  -0.48842097  -2.03681479
H   -2.31491621   0.54326966  -0.95360542
Li  -0.10846319  -0.24649806  -0.06264339
