10
Energy:   -324.52873880
O   -0.19447182  -1.67035777  -0.75004380
H    0.54216989  -1.96115786  -1.28765532
H   -0.95996088  -1.77476636  -1.31516078
O   -1.26556585   1.26801779  -0.72063303
H   -0.85191255   1.78299341  -1.41339772
H   -2.17838209   1.55611127  -0.71992945
O    1.38581145   0.34053099   1.70813048
H    2.27877851   0.67620165   1.62960093
H    1.37744176  -0.12602923   2.54388364
Li  -0.10532964  -0.06519050   0.22057236
