10
Energy:   -325.41179451
O   -0.07855689   1.79986227   0.15044005
H   -0.97113803   1.91261471  -0.17638964
H    0.08697611   2.58514086   0.67213748
O   -1.01362382  -0.54478834  -1.40269720
H   -1.12883616  -0.02551812  -2.19850898
H   -1.37343550  -1.40408492  -1.62264446
O    1.15105677  -1.27214353   1.24007247
H    1.57027131  -0.76266758   1.93356023
H    1.21202985  -2.17955396   1.53860295
Li   0.57879022  -0.11228271  -0.14429452
