10
Energy:   -327.65626825
O    0.95459125  -0.38977250  -1.93061429
H    1.49288039   0.12711876  -2.53003073
H    0.68980140  -1.15330537  -2.44358188
O   -0.96172094  -1.15698155   0.75223130
H   -1.22474931  -2.07513188   0.68860830
H   -1.21804371  -0.89462314   1.63636848
O   -0.03167616   1.48264472   1.20386688
H   -0.09982279   2.40123628   0.94352587
H    0.56214112   1.48938529   1.95457818
Li  -0.16041557   0.23060740  -0.32584646
