10
Energy:   -334.79452075
O    1.68335746  -0.42059564  -1.19160729
H    2.36409210   0.18436909  -1.48631032
H    2.04645110  -1.29033137  -1.35880363
O   -0.13724440  -1.02266433   1.54976907
H    0.47726049  -1.20646783   2.26028428
H   -0.98558899  -1.31257342   1.88517334
O   -1.50155453   1.41664699  -0.40974154
H   -2.11364410   1.42463189  -1.14561820
H   -1.75413309   2.17232676   0.12071486
Li  -0.11655492   0.07804736  -0.22074615
