10
Energy:   -324.74740678
O    0.98991799  -1.20205067   1.11680388
H    1.74875991  -1.74665660   1.32607682
H    0.32771102  -1.45592757   1.75965714
O   -0.09414749   2.10331883   0.32737557
H    0.00043279   2.58304892   1.15026406
H   -0.45525902   2.74492349  -0.28432188
O   -0.75064626  -0.86439249  -1.53427066
H   -1.18778721  -1.58834061  -1.08589719
H   -1.09976393  -0.88807910  -2.42521826
Li   0.49805730   0.33165747  -0.33984088
