10
Energy:   -319.41721151
O    1.81330944   0.23530850   0.53574326
H    2.38030824   0.99831282   0.42363342
H    2.40956655  -0.51297036   0.50767086
O    0.14433976  -0.56778505  -1.53713130
H    1.09786601  -0.57076486  -1.62086106
H   -0.16389948  -1.07855254  -2.28568790
O   -2.10067338   0.33306189   1.05911383
H   -3.00004314   0.44184170   0.75002996
H   -2.14794728   0.50342504   1.99984409
Li  -0.40013605   0.24568468   0.15354842
