10
Energy:   -322.72768925
O   -1.85284114  -0.48422635  -1.27174697
H   -2.27369818  -0.12828659  -2.05431843
H   -2.25097136  -1.34704178  -1.15653533
O    0.11779584  -0.25952921   1.63389083
H   -0.11201902   0.07445839   2.50099478
H    0.85252472  -0.85231794   1.79202636
O    1.61860705   0.73905514  -0.38163004
H    2.36113092   0.78254026   0.22086411
H    1.93417899   1.15846762  -1.18209201
Li  -0.37351343   0.36034028  -0.10243774
