10
Energy:   -326.83673808
O    0.22298317  -2.10205787  -0.60344318
H   -0.01951494  -2.37544821  -1.48813761
H    0.58313659  -2.89115306  -0.19865909
O   -1.52557299   1.12159024  -0.19192290
H   -1.62363761   1.73325290  -0.92163790
H   -2.09327611   1.47318115   0.49388235
O    1.23432050   0.90093043   0.80301136
H    1.75296759   0.98279274   1.60334604
H    1.55116831   1.60605734   0.23853342
Li  -0.05109362  -0.45764970   0.29424501
