10
Energy:   -332.07059840
O    1.56846411  -1.35568939  -0.21221896
H    1.96604443  -1.72465581  -1.00090491
H    2.00993544  -1.80198815   0.51038213
O   -1.35637344   0.57773878  -1.45871208
H   -1.49508331   1.38284732  -1.95750228
H   -2.05443140  -0.00861631  -1.75049049
O   -0.11383633   0.89842862   1.64899202
H   -1.00671152   1.22360638   1.76416652
H    0.16486750   0.64553684   2.52910666
Li   0.29719916   0.10942093  -0.06862662
