10
Energy:   -328.38356551
O    0.34218702   1.71921347  -0.43618203
H    0.19605404   2.60397695  -0.10141258
H    0.67315380   1.85043485  -1.32470540
O    1.38482143  -1.28900352   0.45674952
H    2.21148288  -0.88712000   0.18963093
H    1.50230932  -2.22179120   0.27692852
O   -1.73675492  -0.50266840   0.15268142
H   -2.24259032  -0.02575793  -0.50528424
H   -2.32604466  -1.19440638   0.45346045
Li   0.00079364  -0.01501505   0.83870953
