10
Energy:   -323.27733628
O   -0.30417459   1.89965491   1.12536119
H   -0.08497691   2.17907239   2.01424257
H   -0.55657441   2.70607218   0.67567534
O    0.46550353  -0.03525708  -1.63051052
H    1.24395369   0.38534475  -1.99566979
H    0.36145001  -0.83561591  -2.14512733
O   -0.30643086  -1.78026886   0.58841408
H    0.47901492  -2.09559952   0.14134209
H   -0.76739114  -2.57610931   0.85371663
Li  -0.50889100   0.12043433   0.36895931
