10
Energy:   -327.85412684
O   -2.00172315   0.54029859  -0.17467817
H   -2.35349074   1.41834746  -0.02797580
H   -2.75939757  -0.03873020  -0.09169032
O    0.97920236   1.46368311   0.34128675
H    1.42753772   1.51104203   1.18567078
H    1.43348795   2.10270236  -0.20781329
O    0.93038932  -1.97296397  -0.22805648
H    0.98774709  -2.69776945  -0.85063092
H    1.53136892  -2.21399372   0.47689744
Li  -0.14078997  -0.14613825  -0.43931070
