10
Energy:   -323.30507216
O   -0.83749057   1.83922943  -0.75117295
H   -0.75750064   2.72714598  -0.40269389
H   -1.69239848   1.82643091  -1.18152224
O    0.32740909  -1.93706663  -1.01969065
H   -0.28266911  -2.67240602  -1.07724429
H    1.01382914  -2.14453884  -1.65373690
O    0.67141541   0.09022488   1.71895293
H    0.90570501   0.78323671   2.33626552
H    0.34863922  -0.62288089   2.26988626
Li   0.24248053   0.12947468  -0.23766917
