13
Energy:   -311.58202268
O   -0.62668335  -0.33996602  -3.46876151
H   -1.00366028  -1.07394358  -3.95393898
H   -0.45372069   0.32482107  -4.13537526
O    1.83061660   0.43485415  -0.12107981
H    2.70088590   0.67982374  -0.43548894
H    1.91743754   0.41179346   0.83189563
O    0.08550499   0.46321923   2.74369066
H    0.03241831   1.30943353   3.18791473
H    0.35441878  -0.15030691   3.42743250
O   -1.40872539  -0.62788704   0.66590319
H   -1.02173080  -0.25157081   1.45637971
H   -2.20358412  -1.06443577   0.97226351
Na  -0.15571011  -0.08768157  -1.20969056
