13
Energy:   -311.48065348
O   -1.97327920  -0.21099369  -0.17556175
H   -1.86728214  -1.01710976  -0.68070862
H   -2.91901582  -0.06520351  -0.15191191
O    1.65313424  -0.17455643  -0.22068100
H    1.42280841  -1.06471324  -0.48676880
H    2.58711684  -0.09966048  -0.41638219
O   -0.20859454   3.13213713   1.40936120
H    0.31152293   3.87829167   1.11109445
H   -0.73618402   3.47951563   2.12853389
O    0.56050203  -2.57347223  -0.91650446
H    0.55815486  -3.33484202  -0.33638173
H    0.74103236  -2.93383890  -1.78470749
Na  -0.16611131   1.00383433   0.52775311
