13
Energy:   -311.28754969
O    0.44775874  -1.92899782  -0.50744000
H    0.40919553  -2.85168212  -0.75923041
H    1.29881878  -1.62858549  -0.82631471
O   -2.87460117  -0.82130607   1.67506156
H   -3.07156430  -0.67159015   2.59973583
H   -3.68210038  -1.18694002   1.31382937
O    2.25501235   1.04432727  -1.23736749
H    3.08960543   1.36991169  -0.90020133
H    2.31460338   1.16714220  -2.18478358
O    0.00863366   1.66929294   0.21817544
H   -0.11760250   2.61382162   0.30851840
H    0.82168669   1.58234652  -0.27943580
Na  -0.91406308  -0.38093983   0.56220247
