13
Energy:   -313.60813692
O   -0.51389269  -0.25457502   2.13143029
H   -0.77816946   0.42944070   2.74666369
H   -0.74444614  -1.07370608   2.56972386
O   -2.11992942   0.82384209  -1.10531859
H   -2.44610256   1.44269581  -1.75866612
H   -2.90883072   0.42908584  -0.73378921
O    1.94446426   1.47430092  -0.18999631
H    1.74654680   2.36793689  -0.47013070
H    2.89615217   1.45985282  -0.08844232
O    0.88993254  -2.04987013  -0.81061417
H    1.62150278  -2.44640254  -1.28368803
H    0.18996486  -2.70075135  -0.86190482
Na   0.12778289   0.11459633  -0.17957141
