13
Energy:   -311.40377140
O    0.10073395  -1.05216820  -1.18591116
H    0.61777480  -0.36190130  -1.60116075
H    0.09220874  -1.76371053  -1.82611948
O    0.27753201   1.58879965   1.22064754
H    0.87137026   1.96214687   0.56934128
H    0.30786171   2.20378062   1.95352568
O   -2.00163269  -1.83763941   2.20341000
H   -2.68867058  -1.61194400   2.83052432
H   -1.91988033  -2.78907781   2.26908622
O    1.51097437   1.18525775  -2.12576486
H    1.18795554   1.81240291  -2.77274216
H    2.44336809   1.09581248  -2.32292810
Na  -0.83272416  -0.41573144   0.81975373
