13
Energy:   -312.50056108
O   -2.23964172  -1.30953084   0.96602682
H   -2.50165702  -2.12765479   0.54382659
H   -2.81481454  -1.23764047   1.72776159
O    1.69760382  -0.85241490   0.57539810
H    2.42972409  -1.22767557   1.06469474
H    2.01191215  -0.80426233  -0.32744377
O   -0.64639025   2.18406011   0.72179383
H   -0.07388525   2.73072489   1.25996434
H   -1.31341998   2.78649509   0.39258983
O    1.11868226  -0.03343373  -2.05603735
H    1.77993285   0.57549784  -2.38494744
H    0.95000060  -0.62404273  -2.79017586
Na  -0.40604089  -0.06084666   0.21817427
