13
Energy:   -319.88094533
O   -1.80729833  -0.70578651   1.79506563
H   -2.22379715  -0.15260293   2.45593513
H   -2.19198587  -1.57184085   1.92996272
O   -1.40712482   0.26302098  -0.79486614
H   -1.72841516  -0.05663561   0.04823766
H   -2.19922247   0.43405901  -1.30433562
O    2.46311439   0.96192722  -2.44644153
H    2.84745954   1.82809329  -2.58159694
H    2.87994628   0.40867632  -3.10704464
O    0.92566898  -0.45108186   1.27306242
H    1.51273103  -0.70218420   1.98618064
H    0.04685317  -0.60007362   1.62194072
Na   0.88758648   0.34658509  -0.88157904
