13
Energy:   -311.37167525
O    3.36912139   0.64288703   0.87121438
H    3.77649476   1.47751232   1.10290254
H    4.10314865   0.03613466   0.77484328
O    0.18214837  -0.29294039  -1.50887024
H    0.41711970  -0.50092151  -2.41317339
H   -0.74057472  -0.53756195  -1.43834195
O   -2.46334595  -0.85706272  -0.91389513
H   -3.11591633  -0.32947442  -1.37436699
H   -2.83946320  -1.73695090  -0.89013683
O   -0.90131819   0.55963813   1.64257593
H   -1.17475955   1.21545475   2.28395431
H   -1.71955575   0.17228603   1.33164589
Na   1.13365517   0.13797699   0.54363753
