13
Energy:   -311.07107120
O    3.25422658  -1.02781885  -1.08369627
H    3.60086046  -1.91507538  -1.17778481
H    4.00545912  -0.45795302  -1.24842167
O   -0.97804642  -0.21989258  -1.69850542
H   -1.24883857  -0.32994723  -2.60998303
H   -1.79681128  -0.22440199  -1.20268729
O   -2.40749281   0.81869605   1.25358714
H   -2.97105714   0.30229368   1.82974310
H   -2.76755367   1.70454701   1.29666980
O    0.30256658   0.43110253   1.43368722
H    0.56484253   0.53919952   2.34788534
H   -0.64098345   0.59217723   1.43406245
Na   1.11595691  -0.24146980  -0.58963494
