13
Energy:   -310.90713077
O   -1.60305019  -0.15992451   0.39548965
H   -2.51071363  -0.11796256   0.69651809
H   -1.36405662  -1.08279559   0.48164576
O    0.25042024   3.40562107  -0.73229312
H    0.41917531   4.13795943  -0.13947435
H    0.08662681   3.81674475  -1.58104566
O   -0.60994200  -2.73789559   0.50727986
H   -0.78683018  -3.26589012   1.28584533
H   -0.68151810  -3.35395119  -0.22181836
O    1.94369675  -0.33091833  -0.20304512
H    1.87867537  -1.20409533   0.18369253
H    2.87645590  -0.21840033  -0.38616237
Na   0.12562373   1.14484147  -0.30326346
