13
Energy:   -310.88162201
O    2.66292025   0.85596621   0.21042581
H    2.90839211   1.74642783  -0.04067877
H    3.46784006   0.47511726   0.56155260
O    0.72241006  -0.33435266  -1.29933504
H    1.04396141  -0.45968595  -2.19215537
H    1.46177733   0.05202849  -0.82999775
O   -0.27969963  -0.00847482   2.04852829
H    0.65746174   0.14269884   2.17143857
H   -0.66029820   0.12570199   2.91649901
O   -3.28098223  -0.68531284  -0.97505040
H   -3.74958347  -1.42571449  -1.36034266
H   -3.83134061   0.07369533  -1.16803772
Na  -1.15858806  -0.52348509  -0.03882632
