13
Energy:   -312.14574138
O    0.30274667  -1.74864903   0.67175722
H    0.33484369  -2.69659951   0.80056530
H    1.21195623  -1.46327983   0.76194721
O    0.33334641   1.49027679  -0.45686704
H    1.21416702   1.11870967  -0.40865096
H    0.42448081   2.24990675  -1.03209630
O    2.66043194   0.04110528  -0.16326705
H    3.26489154   0.37438747   0.49989463
H    3.20090084  -0.07284485  -0.94502186
O   -3.52371053   0.23243870   0.00566380
H   -3.97292035   0.88904700   0.53793058
H   -4.22487832  -0.32897791  -0.32510344
Na  -1.24329346  -0.10581340   0.02477762
