13
Energy:   -310.97589764
O   -1.27006260   0.79540774   2.33863602
H   -0.94327386   0.64570927   3.22578388
H   -2.10719294   1.24245801   2.46349881
O    0.87040636   1.83323345  -0.15447813
H    0.65883798   2.04012024   0.75583420
H    1.17811095   2.66112094  -0.52346598
O   -0.71325473  -1.29910961   0.60724953
H   -0.99652733  -0.65604858   1.25721952
H   -1.23502108  -2.07867309   0.79770297
O    1.21068748  -1.41492909  -2.94924131
H    0.66697432  -1.97780570  -3.50040168
H    2.07328496  -1.43420524  -3.36371188
Na   0.62451094  -0.35041250  -0.97960963
