13
Energy:   -311.84430363
O   -1.71581670   1.49608016  -1.60111574
H   -2.64632050   1.45554340  -1.38031877
H   -1.67194044   2.09477139  -2.34668635
O   -0.08495925  -0.70607737  -1.38074547
H   -0.26158340  -1.28742096  -2.12039091
H   -0.64928249   0.05225123  -1.53144010
O    1.92611376  -2.38757787   1.78390419
H    2.75345887  -2.73400802   1.44966166
H    1.79956016  -2.83431521   2.62094767
O    0.04477364   1.47008230   1.23848561
H    0.08538914   2.03492107   2.01019761
H   -0.28645808   2.03785691   0.54267717
Na   0.69279568  -0.70217412   0.78136529
