13
Energy:   -311.32546633
O   -1.99061733  -0.03404231  -0.59396267
H   -2.90952009   0.20022121  -0.72423228
H   -1.98367867  -0.99119302  -0.60076158
O    0.05304420  -2.79217116   0.70963353
H    0.32611211  -3.60375942   0.28185993
H   -0.23166324  -3.06469259   1.58193255
O    1.37903101  -0.42031585   0.39232415
H    2.27639465  -0.52920744   0.70714629
H    0.97591254  -1.27986589   0.51439414
O    0.59109126   3.41570274  -0.59319958
H    1.05812651   3.83778877  -1.31427746
H    0.46736820   4.11141991   0.05247996
Na  -0.03313532   1.19313895  -0.41376618
