13
Energy:   -311.00395182
O    0.15576995  -0.98395250   1.73742114
H    0.13024261  -1.70527972   2.36612397
H    0.15145343  -0.19408932   2.27809607
O    0.09258292   1.23872264  -1.11140333
H    0.26576012   1.87148894  -1.80843153
H   -0.24144011   1.76627975  -0.38590766
O   -0.86835267   2.44977559   1.14585415
H   -1.80388220   2.57576582   1.30441900
H   -0.45106422   3.20617317   1.55812214
O    0.67783824  -2.79969632  -1.93020999
H    0.14759509  -3.58496402  -2.06596229
H    1.43645188  -2.92069027  -2.50125960
Na   0.31072403  -0.97863588  -0.56445701
