16
Energy:   -483.99270188
O    0.38152946  -0.68927243   2.77760173
H   -0.22035640  -0.84259775   3.50592626
H    1.23246541  -0.98212098   3.10376055
O   -1.97109326   0.22435716  -1.46197247
H   -2.75612972   0.61209680  -1.07518109
H   -2.29842393  -0.30634560  -2.18822384
O    0.01893386   1.27193365   0.90135682
H   -0.00203090   2.14558200   1.29190885
H    0.16641505   0.68205344   1.64062841
O    0.38717191  -1.62200447  -0.35437413
H    0.94347820  -2.21793264  -0.85599628
H    0.14324747  -2.12063703   0.42543243
O    1.12769404   0.97659591  -2.08396488
H    0.96980181   1.31627779  -2.96482702
H    2.02218244   1.24855851  -1.87863905
Li  -0.12908391   0.24275581  -0.74738016
