16
Energy:   -484.60385456
O    0.06196313   0.98017462   1.10847149
H    0.97715756   0.74330058   1.25861034
H   -0.07538906   1.76008236   1.64616112
O    2.66280162   0.21563727   1.34719891
H    3.00934568  -0.35388363   2.03406499
H    3.34105341   0.87911399   1.22068805
O   -2.01683195   1.00046560  -1.38629502
H   -2.96922471   0.95899184  -1.29992492
H   -1.86408859   1.69307195  -2.02909962
O    0.74473186  -0.61173391  -1.53479661
H    1.64524382  -0.72578488  -1.23098345
H    0.79618540  -0.72082290  -2.48436702
O   -1.68408497  -1.60465534   0.40364944
H   -2.18760609  -1.65345780   1.21624814
H   -1.67945072  -2.50179200   0.06994869
Li  -0.71678023  -0.05383493  -0.34499497
