16
Energy:   -492.14389941
O   -1.22535245  -1.96562131   0.92685604
H   -0.89783303  -2.60838305   1.55599849
H   -1.86143294  -2.44869045   0.39933575
O   -1.48317966   1.07193772   1.84624786
H   -1.30660161   1.99963313   2.00255932
H   -2.20496236   0.86185922   2.43880892
O    1.90881172   0.51562398  -1.98267517
H    2.29860849   1.34081338  -2.27138397
H    2.31874463  -0.14976082  -2.53535042
O   -0.79860667   0.34503206  -1.28893342
H   -1.45163668   0.60668368  -1.93802670
H    0.04021189   0.44266434  -1.73958097
O    1.38379367  -0.00810336   0.72095630
H    1.78924165   0.16787822  -0.12808685
H    2.11567805  -0.02432865   1.33765221
Li  -0.57340947  -0.14075120   0.60252810
