16
Energy:   -460.44400336
O    0.32081194   1.71870457   1.48613315
H    1.06501827   1.11673189   1.48192947
H    0.33927532   2.11705884   2.35630832
O   -1.39487778  -0.56415883  -0.29732363
H   -0.88143093  -1.36194393  -0.17026807
H   -2.30372515  -0.86400197  -0.31527900
O    0.26566442  -2.73413698   0.19476575
H    0.15282703  -3.25101622   0.99247210
H    0.45726785  -3.38039234  -0.48484737
O    1.77343603  -0.36900695   0.30308387
H    2.70118650  -0.46590575   0.08832461
H    1.43939772  -1.26549054   0.33418728
O   -1.04513843   2.41674209  -1.64788861
H   -1.63791804   2.27294864  -2.38556579
H   -0.73966254   3.31724411  -1.75748996
Li  -0.52835024   1.17424713  -0.22527890
