16
Energy:   -463.33777629
O    0.81378924   3.04536822  -1.74115870
H    0.55943753   3.10901914  -2.66174852
H    1.26268202   3.87083288  -1.55857936
O    1.06477955   0.29014194   1.32545435
H    1.94438297   0.21695552   1.69582364
H    1.00594657   1.19675840   1.02409553
O   -1.06606495   0.56469156  -0.64061456
H   -0.66360283   1.29317560  -1.11344337
H   -1.96388208   0.53105811  -0.97080395
O    0.53756390  -2.38124692  -0.58382036
H    0.94962797  -3.14225962  -0.17480358
H    0.62337709  -2.53831338  -1.52413843
O   -1.42596320  -1.60870241   1.82331383
H   -1.97414457  -2.38834958   1.91207935
H   -1.40315739  -1.23004004   2.70213494
Li  -0.25191694  -0.87994159   0.43562092
