16
Energy:   -485.87226409
O    1.11093403   0.95543220   0.36671258
H    0.89442670   0.74391867   1.27479762
H    1.69865590   1.70836278   0.42924564
O    1.09324301  -1.54523884  -1.44316461
H    0.87059814  -2.39230605  -1.82934883
H    2.05000181  -1.53840222  -1.41492098
O   -0.05010643   0.24989809   2.83166640
H   -0.24310245   1.10878840   3.20755446
H    0.25725716  -0.27266910   3.57239780
O   -1.52224484  -0.67614255   0.37992322
H   -2.40515035  -1.03685159   0.29869080
H   -1.33718241  -0.70367915   1.31865933
O   -0.70163391   0.94847339  -2.39053105
H   -1.08482910   1.82490593  -2.42601769
H   -0.54032377   0.71983453  -3.30591903
Li  -0.05913488  -0.06477373  -0.82377048
