16
Energy:   -466.63558426
O    0.59391216  -1.27069963   0.24953591
H   -0.33850672  -1.47378930   0.32424516
H    1.00054564  -2.09952682  -0.00330109
O   -1.48248233   0.89584503   0.21064800
H   -2.20092822   1.50490005   0.04000410
H   -1.91415226   0.06379675   0.40452574
O   -2.21399232  -1.80309935   0.64774278
H   -2.63364189  -1.86780385   1.50561189
H   -2.59035781  -2.52306818   0.14155531
O    2.38208629   0.82754911   0.85302429
H    2.51191629  -0.07441357   1.14600782
H    3.26505458   1.19419243   0.80642463
O    0.92107398   1.71661449  -1.79498134
H    1.78946544   2.00159265  -2.07943797
H    0.33563066   1.98931459  -2.50146745
Li   0.52434268   0.81061501  -0.04598612
