16
Energy:   -462.99002958
O    1.64059385   0.34989226   1.36654456
H    2.50344752   0.71685897   1.55903045
H    1.21530140   0.27578328   2.22086654
O   -2.76387169  -1.79705815   1.44225288
H   -2.79921013  -2.74309764   1.30085862
H   -3.42243822  -1.63042838   2.11660923
O   -1.25262172   0.56717316   0.03384162
H   -1.92398310   0.00364562   0.41847450
H   -1.66808859   1.42725273  -0.02846623
O    1.68254494   1.81971641  -1.12697727
H    2.20181388   1.78307036  -1.93025100
H    1.68662085   2.74464656  -0.88056411
O    0.82287907  -0.96817355  -1.81763985
H    1.15974641  -1.86173843  -1.75211090
H    0.23748316  -0.98730588  -2.57472466
Li   0.68702034   0.35566000  -0.32944506
