22
Energy:   -371.64397507
Na   0.38577876  -1.14201615   1.22848060
O   -0.01679422  -0.73183937   3.44903532
H   -0.55217664  -0.00272005   3.76205694
H    0.08986864  -1.29705002   4.21414433
O   -0.37112464  -3.18678117   0.27257039
H   -0.70952659  -3.98085500   0.68628855
H   -0.18498119  -3.44686538  -0.62961510
O    2.60371634  -1.13673468   0.43552034
H    3.41265441  -1.61325130   0.62202224
H    2.79341994  -0.64545676  -0.36378586
C   -1.65291774   3.14874033  -0.09192789
H   -1.75863741   4.01844806   0.52234566
H   -2.60946604   2.86842018  -0.48094595
H   -0.98731517   3.36290338  -0.90187017
C   -1.08201507   1.99222603   0.74958553
N   -0.65695209   1.13114856   1.37613051
C   -0.25242497   1.28558457  -3.57966664
H   -1.30268695   1.47277855  -3.66217947
H    0.09649684   0.81082141  -4.47283661
H    0.26527569   2.21191018  -3.44253168
C    0.01187911   0.36625119  -2.37278244
N    0.20866552  -0.31823431  -1.47420230
