22
Energy:   -384.78038653
Na   0.01472373   0.08005795  -0.10057048
O   -1.42508672   0.66250139   1.58911581
H   -1.09359095   1.37483630   2.13585283
H   -2.31460123   0.50938039   1.90778451
O   -0.47367201   2.64768460   3.13102926
H   -0.15298430   2.35776445   3.98504188
H   -0.92372920   3.47303673   3.31123535
O    0.92229546   2.16278299   0.29319111
H    1.33091367   2.81429281  -0.27671938
H    0.86084913   2.59422976   1.14542927
C    3.21938527  -3.79891079   0.26282433
H    3.92994448  -3.63922098  -0.52107933
H    2.72901093  -4.73818309   0.11382888
H    3.72448729  -3.80593333   1.20607495
C    2.17551245  -2.66678555   0.24792588
N    1.39830168  -1.82386684   0.23683331
C   -2.42206842  -0.76585644  -4.43107247
H   -3.05687971  -1.61003148  -4.25994883
H   -1.74281828  -0.98610190  -5.22794779
H   -3.01925647   0.08170929  -4.69545451
C   -1.62652135  -0.45374710  -3.14994303
N   -1.03420040  -0.22136752  -2.19608394
