22
Energy:   -390.45492306
Na   0.81822414   0.19515787   1.00236740
O   -0.80979054  -1.41555883   0.70704054
H   -0.92728996  -1.69624856  -0.20050506
H   -1.45815164  -1.91868532   1.19971028
O    2.57072092  -0.30459376   2.42928340
H    2.87982539   0.22429448   3.16478561
H    3.14556389  -1.06995301   2.42573103
O    1.23933048   0.13295889  -1.26718251
H    1.79389580   0.53886597  -1.93346218
H    0.68590160  -0.47715611  -1.75473560
C   -1.69873079  -3.18266293  -4.25966020
H   -2.51091942  -2.62707690  -4.67986727
H   -2.05100734  -4.13977623  -3.93603315
H   -0.93650685  -3.31444885  -4.99894786
C   -1.11980306  -2.41508925  -3.05663347
N   -0.68876505  -1.84359576  -2.16092538
C   -0.84540816   4.63828180   2.76073201
H   -1.87311636   4.52713784   3.03707067
H   -0.76301780   5.36248780   1.97738242
H   -0.28123949   4.96490920   3.60921734
C   -0.29683729   3.28582903   2.26926329
N    0.11159866   2.27886647   1.90334248
