22
Energy:   -391.93092662
Na  -0.38182293   0.15216137  -0.27026582
O   -2.18843393   0.87215637  -1.54916330
H   -2.16834913   1.40687650  -2.34282749
H   -3.11800425   0.69989060  -1.39931209
O   -1.70632585  -0.99267188   1.28214152
H   -2.02675178  -0.66920628   2.12412078
H   -1.93014190  -1.92333724   1.28167358
O    1.22066068   1.18619392  -1.62590054
H    1.62128210   2.04640130  -1.50029170
H    1.71785665   0.79226232  -2.34273100
C    1.43660171  -4.35882055  -1.82009464
H    2.46315885  -4.24632636  -2.10014049
H    0.87470959  -4.71258274  -2.65915879
H    1.36084850  -5.06269285  -1.01777031
C    0.87685844  -2.99852264  -1.36415929
N    0.46010413  -1.98571900  -1.02469470
C    0.83498739   3.45355895   3.42807496
H    0.17691117   4.29675269   3.39874593
H    1.84324133   3.78295492   3.28728652
H    0.74816100   2.96618431   4.37666667
C    0.45595768   2.46735973   2.30765202
N    0.17375282   1.73308958   1.47344621
