22
Energy:   -392.83035440
Na  -0.02256758  -0.07412017   0.01452193
O    1.01180198  -2.12789877   0.23938756
H    0.39139832  -2.83240241   0.42648588
H    1.86548341  -2.56016078   0.21470090
O   -2.01459498  -1.17205750   0.42053889
H   -2.95852305  -1.03657307   0.50345828
H   -1.89343387  -2.11077324   0.56324344
O   -1.15804588  -3.81130290   0.76387392
H   -1.40878080  -4.48551127   0.13236230
H   -1.24181502  -4.23810599   1.61654836
C    0.48012812   2.35308635  -4.39464543
H    1.49347749   2.67854453  -4.50464641
H   -0.17050354   3.20246817  -4.40596156
H    0.22612779   1.69845732  -5.20201385
C    0.32365610   1.60437009  -3.05803013
N    0.20715557   1.04691680  -2.06285928
C    1.33295120   3.61367544   3.20002149
H    2.18303571   3.30288775   3.77069436
H    0.52134103   3.83549525   3.86106915
H    1.58245010   4.48785202   2.63569473
C    0.91848426   2.48355987   2.23947168
N    0.60989478   1.64213746   1.52429868
