22
Energy:   -383.53025276
Na  -0.19483588   0.12213887   0.20337764
O   -1.39500406   0.75345375  -1.64754524
H   -2.32918564   0.95026577  -1.57825130
H   -1.17519935   0.95019719  -2.55815479
O   -1.92991253   0.48530323   1.71342943
H   -1.93650238   0.58619555   2.66527456
H   -2.82024525   0.70888725   1.44222898
O   -4.04171821   1.33513120  -1.37615586
H   -4.40136755   2.20435438  -1.55317357
H   -4.78661053   0.74232986  -1.47592484
C    1.85321794  -4.50044366  -0.06384063
H    1.10382774  -5.24352327   0.11264507
H    2.62748949  -4.59370928   0.66876034
H    2.26806022  -4.63721533  -1.04062028
C    1.22034350  -3.09988026   0.03358684
N    0.74913971  -2.05709715   0.10612602
C    4.29615212   2.30140579   1.03145981
H    4.89928439   1.59471915   1.56223814
H    4.21268206   3.20090234   1.60490362
H    4.75073280   2.52078962   0.08799480
C    2.89396816   1.70815388   0.80008931
N    1.84997846   1.26645087   0.62782345
