22
Energy:   -370.73405396
Na   0.37101385   0.77559501  -0.62320934
O    2.08047664  -0.55789569   0.13907185
H    2.72855329  -1.18937067  -0.17312658
H    2.24468042  -0.49063114   1.07968040
O    0.00155920   1.54307838   1.51127639
H    0.59282561   1.17875525   2.16999071
H   -0.56512117   2.13920565   2.00090635
O   -0.42591290   1.33308333  -2.68409180
H   -0.26882006   1.95403204  -3.39541197
H   -1.16192283   0.80166491  -2.98759748
C    3.21455953  -0.31336208   5.35400750
H    3.95366739   0.44035999   5.52871525
H    3.67909822  -1.27722341   5.36262312
H    2.47118609  -0.26882574   6.12232484
C    2.55210913  -0.07501723   3.98435381
N    2.05888471   0.10244134   2.96458439
C   -4.60495759  -1.64441321  -4.46829662
H   -4.96531278  -2.42018145  -3.82546852
H   -4.27601810  -2.07125216  -5.39269178
H   -5.39173930  -0.94464118  -4.65854046
C   -3.42736286  -0.92070520  -3.78924039
N   -2.55059005  -0.38187169  -3.28365216
