22
Energy:   -375.17611677
Na  -1.05703920  -0.32956342   0.81878733
O   -2.18192401  -1.70040751  -0.64048189
H   -2.39574913  -1.67718294  -1.57320441
H   -1.98310150  -2.61969152  -0.46266638
O   -2.14772061   1.66549899   1.44876351
H   -3.06624038   1.81080990   1.67556300
H   -1.73380075   2.52081553   1.56424433
O   -1.00173358  -1.24441506   2.97485608
H   -1.49550054  -1.57097581   3.72704230
H   -0.09367687  -1.48214765   3.16233427
C    2.81083310  -1.93141310  -1.74699896
H    2.38574951  -2.10428783  -2.71360046
H    3.52511644  -2.69775498  -1.52924101
H    3.29623947  -0.97791290  -1.73617778
C    1.69597731  -1.95197085  -0.68479655
N    0.86591651  -1.96727702   0.10606143
C    1.56889055   3.36483704  -1.54143329
H    2.57791583   3.35681027  -1.18547860
H    1.06621750   4.23291902  -1.16907249
H    1.56822597   3.38372538  -2.61126593
C    0.84107706   2.09981312  -1.04990302
N    0.29918684   1.15794531  -0.68393639
