22
Energy:   -382.72215569
Na  -1.14301821   0.15237138   0.26116310
O   -2.92267610   1.52107308   0.84867537
H   -3.68591576   1.24679281   1.35707226
H   -2.97512596   2.47671707   0.83366098
O    0.81989322   1.00592514   1.10591026
H    1.24099720   1.33457425   1.90019803
H    1.47194539   1.13575542   0.41728562
O   -0.89855707   0.06629844  -2.06024348
H   -1.59782672   0.04124089  -2.71340955
H   -0.10717771   0.25869908  -2.56316749
C    4.85416157   1.93696687  -2.20933754
H    4.73010317   2.32576681  -3.19845042
H    5.47829639   1.06851354  -2.24315536
H    5.31001144   2.67984515  -1.58866706
C    3.47833984   1.55811910  -1.63038250
N    2.45397802   1.27604971  -1.19932416
C   -2.37715681  -4.26501070   2.37434268
H   -3.41116856  -4.26789257   2.64950006
H   -1.77473845  -4.38907063   3.24989984
H   -2.18694575  -5.06845175   1.69375373
C   -2.02974611  -2.92595252   1.69771208
N   -1.77108304  -1.92896283   1.19392983
