22
Energy:   -370.84351265
Na   1.77249764  -0.78770244   0.54351422
O    0.54664695   0.83126539   1.60484426
H    0.25128406   1.17371202   2.44848098
H    0.13184399   1.40019165   0.95638975
O    1.14507044   0.03426874  -1.50120775
H    1.19500038  -0.08317290  -2.44986275
H    0.58265178   0.79980516  -1.38343219
O   -0.40183703   2.14465540  -0.62783087
H   -0.26028357   3.06783438  -0.83743773
H   -1.33785603   2.00644528  -0.77273857
C   -5.77155608   1.83084945  -1.58213721
H   -6.19686651   0.86226826  -1.42132151
H   -5.92256374   2.12207233  -2.60060911
H   -6.24391142   2.53977633  -0.93467894
C   -4.26224757   1.78541424  -1.27960877
N   -3.13849877   1.75158566  -1.05436259
C    4.79688892  -4.51944828   2.08452261
H    4.20729319  -5.35700381   2.39400245
H    5.39014376  -4.17759473   2.90676585
H    5.43807989  -4.81257189   1.27963020
C    3.86878523  -3.38412707   1.61412990
N    3.17776985  -2.53882883   1.26390115
