22
Energy:   -383.94082167
Na  -0.10823107   0.21236979  -0.11677035
O   -1.73787928   0.38079457   1.48773051
H   -2.01904015   0.10660254   2.36065613
H   -2.49489234   0.84102781   1.12531025
O   -0.96020786   1.62098050  -1.76533642
H   -1.85235612   1.96723312  -1.78564576
H   -0.50346323   2.09356871  -2.46123625
O   -3.74069617   1.70861901   0.15249319
H   -4.52378377   1.21197786  -0.08489517
H   -4.07717253   2.51064923   0.55219688
C    1.07252686  -4.34840686  -1.97664878
H    0.55492533  -4.51858908  -2.89753251
H    0.75431983  -5.06704856  -1.25056513
H    2.12607163  -4.44534344  -2.13647935
C    0.75914894  -2.92964609  -1.46624485
N    0.52582484  -1.87331421  -1.08622593
C    4.28941210   1.17833908   2.16474431
H    4.86318936   0.27632317   2.11949904
H    4.09892779   1.42896521   3.18738861
H    4.83518258   1.97197280   1.69871943
C    2.95225289   0.97361377   1.42874649
N    1.95667707   0.82118647   0.88076266
