22
Energy:   -392.83437338
Na  -0.01886588   0.00896902   0.07726491
O   -1.65380395  -0.78047031   1.50632892
H   -2.42705468  -1.34326843   1.54599542
H   -1.55658280  -0.44311657   2.39681887
O    0.82443788   1.17396042   1.88560419
H    0.31442722   1.03243818   2.68315822
H    1.52320978   1.77208288   2.15055550
O   -0.95762698   0.45433888   3.91626507
H   -0.65680474  -0.07096810   4.65774358
H   -1.53502890   1.11089074   4.30585271
C    2.99492982  -3.37725128  -2.16666793
H    3.78837666  -2.86472443  -2.66931944
H    2.42612946  -3.93888465  -2.87795774
H    3.40615531  -4.04088759  -1.43497159
C    2.07974792  -2.35143255  -1.47259443
N    1.39835340  -1.58766388  -0.95582516
C   -1.49545746   2.66582527  -3.96568930
H   -0.63587436   3.08629530  -4.44446069
H   -2.15597952   3.45178289  -3.66422567
H   -2.00214188   2.01639033  -4.64862724
C   -1.05270894   1.86417073  -2.72757632
N   -0.72306255   1.26730248  -1.80574493
