22
Energy:   -381.81842511
Na   0.36368369  -0.04543540   1.28987310
O   -1.70821977  -0.27995632   0.34027884
H   -1.75399961  -0.70062666  -0.51830867
H   -2.60913782  -0.01538598   0.52623863
O    0.52215314  -0.36822976   3.57736526
H   -0.03992682  -0.82495102   4.20322760
H    1.19428529   0.04754196   4.11736906
O    1.72453612  -1.61235930   0.21437481
H    1.68381708  -1.87871942  -0.70411640
H    2.43299629  -2.13822262   0.58556721
C   -2.58759538  -2.68971067  -4.39439234
H   -3.51332391  -3.17272514  -4.16067478
H   -1.89235548  -3.41252584  -4.76732502
H   -2.75487410  -1.93888670  -5.13815325
C   -2.01510673  -2.03484145  -3.12356463
N   -1.58886291  -1.54726156  -2.17737564
C    2.16264068   4.66259966   0.92567658
H    2.24042231   5.15903044   1.87034937
H    1.45220575   5.17481916   0.31101203
H    3.11757474   4.66276841   0.44297585
C    1.69879644   3.21065181   1.14544001
N    1.35344333   2.12961064   1.30906387
