22
Energy:   -374.82540550
Na   0.05085719   0.39687572   0.20862182
O    0.74680972  -1.10476041  -1.71948049
H    0.30687073  -1.79829588  -2.21110441
H    1.51399492  -0.88540459  -2.24819757
O   -0.83050206   1.49309232   2.11576009
H   -1.69841989   1.55673534   2.51438278
H   -0.23880461   1.33943576   2.85231670
O    0.53568519   2.11079637  -1.37836939
H    0.60927186   2.13630696  -2.33239563
H    0.46182456   3.02914321  -1.11872437
C   -4.86125622  -0.46787712  -0.40670241
H   -5.26847098   0.29312388   0.22571659
H   -5.17416998  -1.42885717  -0.05527473
H   -5.20953376  -0.32354554  -1.40808657
C   -3.32354742  -0.38778623  -0.38146151
N   -2.17865332  -0.32815492  -0.36266851
C    4.44526230  -1.66795525   1.11790036
H    5.10589751  -1.37809071   1.90811543
H    4.94308941  -1.55541113   0.17747435
H    4.15864117  -2.69040168   1.24962252
C    3.19046049  -0.77556278   1.14451043
N    2.25620350  -0.11113603   1.16432284
