22
Energy:   -371.18335501
Na   0.27367739   0.14057735  -0.04053367
O   -0.85852609  -0.92243860  -2.31069934
H   -1.52083481  -0.53986436  -2.88621299
H   -0.24979635  -1.36207363  -2.90433305
O   -0.38109446   0.10985783   2.25529870
H   -0.16590716   0.52170712   3.09214184
H   -1.13727650  -0.44446019   2.44804750
O    2.26062753   1.29095201  -0.30886462
H    3.14989010   0.95802078  -0.18803117
H    2.37019136   2.08211854  -0.83639009
C   -2.94285612   3.99876661  -0.13127175
H   -3.17622323   4.35099723  -1.11431476
H   -2.64304772   4.82331265   0.48121323
H   -3.80673226   3.53323175   0.29521904
C   -1.79514398   2.97510829  -0.21177324
N   -0.94062013   2.21294813  -0.27171026
C    1.92231619  -4.51317172   0.66177477
H    1.14683886  -5.02595452   1.19148119
H    2.77216387  -4.39395794   1.30087264
H    2.20148661  -5.08186817  -0.20051714
C    1.41348087  -3.12822634   0.22062526
N    1.03462984  -2.09707154  -0.10783060
