22
Energy:   -380.91670732
Na   0.05762979  -0.12793875  -0.09209739
O   -0.58155000  -1.90218504  -1.42562156
H   -1.48593375  -1.96361918  -1.73310773
H   -0.14143820  -2.65367011  -1.82286662
O   -0.05718122  -0.19355397   2.23071069
H   -0.08293603   0.51859191   2.86978564
H    0.25334832  -0.95060149   2.72738192
O    0.10630745   2.12444705  -0.87308126
H    0.96724511   2.40256133  -1.18560428
H   -0.48218583   2.83561436  -1.12635695
C   -4.75637532   0.97641914   0.75702084
H   -4.52212499   1.94634323   1.14338109
H   -5.17825994   0.37496383   1.53494369
H   -5.46132798   1.07160101  -0.04227963
C   -3.47171503   0.30910764   0.23171777
N   -2.51522706  -0.18773610  -0.15939425
C    5.16211134  -0.86891248  -0.50475395
H    5.69828376   0.05410562  -0.57862479
H    5.38752749  -1.48118959  -1.35281255
H    5.45147598  -1.37883086   0.39031612
C    3.64952164  -0.58224540  -0.46609648
N    2.52332986  -0.36880874  -0.43731424
