22
Energy:   -382.32659409
Na   1.26667955  -0.16076592   1.24069691
O   -0.68703749   0.90430884   1.83042045
H   -1.13041859   1.30249712   1.08136028
H   -1.25860907   1.09168296   2.57502015
O    2.12260842   1.48842143  -0.16877155
H    1.61441949   2.22982024  -0.49786679
H    2.99439422   1.60907170  -0.54515551
O    2.61795020  -0.77784617   3.01927854
H    2.86147255  -1.66721973   3.27607300
H    3.04495582  -0.21592790   3.66592056
C   -3.44548048   2.69328733  -2.49290178
H   -3.29530762   3.73004504  -2.71080483
H   -4.44395907   2.54434529  -2.13828103
H   -3.29262808   2.11638513  -3.38100035
C   -2.44454580   2.24580356  -1.41147307
N   -1.69930444   1.91263156  -0.60630025
C    0.05209830  -4.20970821  -1.54284418
H   -0.99552893  -4.40106734  -1.43911834
H    0.60437910  -5.07450560  -1.23951187
H    0.27415062  -3.98519486  -2.56518737
C    0.44543823  -3.01276161  -0.65729207
N    0.73829768  -2.12158046   0.00204173
