22
Energy:   -385.22423387
Na   0.14858555  -0.16084298   0.20498254
O    1.62888089  -1.99344681   0.40257550
H    1.95614124  -2.41516218  -0.39196125
H    1.94574318  -2.54722133   1.11613273
O    2.48811169  -2.05955857  -2.66846006
H    3.39161321  -1.90724105  -2.94543699
H    2.20950961  -2.82612306  -3.16945069
O    0.65531334  -0.11128615  -2.05741323
H    0.54257109   0.54421387  -2.74577415
H    1.29451070  -0.72746735  -2.41515518
C    0.64845732   4.46991397   2.14858427
H    1.67455363   4.77091533   2.18632969
H    0.24584579   4.45021969   3.13975286
H    0.09464268   5.16471596   1.55239752
C    0.54818420   3.06504410   1.52577937
N    0.47352631   2.01905462   1.06207281
C   -4.65966517  -1.03214732   1.35096756
H   -4.80411638  -1.26499210   2.38528730
H   -4.89575752  -1.88957107   0.75600201
H   -5.29930775  -0.21980812   1.07553790
C   -3.19135715  -0.63213611   1.11503834
N   -2.09813509  -0.33430959   0.93937831
