22
Energy:   -383.15844072
Na   0.16616581   0.00957166  -0.15425491
O    2.06852755  -0.98426310   0.72360906
H    2.83980891  -1.23102249   0.21324966
H    2.27178587  -1.26403465   1.61615922
O    2.40886334  -2.51526870  -2.61182405
H    2.14963360  -3.43669570  -2.60980492
H    3.21639173  -2.49427567  -3.12533066
O    0.45531452  -0.62585545  -2.35071839
H    1.13994628  -1.27988825  -2.49126129
H    0.22762412  -0.32400574  -3.23007934
C   -0.05593377   4.85131706   1.31834606
H   -0.63484239   4.88992929   2.21738671
H   -0.53096010   5.44136088   0.56263621
H    0.92400067   5.23673238   1.50830033
C    0.05057183   3.39180977   0.83866384
N    0.12987010   2.30514025   0.48151863
C   -4.11796991  -1.40735554   2.15000942
H   -4.14502071  -0.98920662   3.13454988
H   -4.17491289  -2.47393239   2.21380921
H   -4.94747382  -1.03916259   1.58321466
C   -2.80321377  -1.00402596   1.45694266
N   -1.82431806  -0.70372875   0.94092295
