22
Energy:   -368.79412009
Na  -0.73953626  -0.20874441   1.45672031
O   -2.92009531  -0.83955006  -1.77633286
H   -3.00391799  -1.65188997  -2.27564186
H   -3.42085641  -0.19653767  -2.27833409
O   -0.39426307  -0.11409094  -0.78871349
H   -1.14890658  -0.33131360  -1.33603363
H    0.30471390   0.08480972  -1.41169148
O   -2.90945460  -0.83129390   1.01516819
H   -3.06821389  -0.87854154   0.07240894
H   -3.74706573  -1.07058865   1.41187648
C    1.65274961   0.48448417   5.84440203
H    1.08980560   1.15633272   6.45809067
H    2.62099729   0.89934018   5.65654565
H    1.75830810  -0.45420562   6.34701319
C    0.91748868   0.27145316   4.50813516
N    0.37005349   0.11284188   3.51322373
C    3.54994476   1.00778145  -4.44389596
H    3.13664574   0.91328110  -5.42631836
H    4.36059251   0.31871016  -4.33018551
H    3.90787706   2.00611084  -4.30204396
C    2.46290273   0.69869029  -3.39775912
N    1.65355053   0.46855787  -2.61886269
