22
Energy:   -371.37873117
Na  -1.97381793  -0.72980129   1.33133102
O   -1.38064088   0.70480641   3.02096368
H   -1.62036061   1.02731653   3.88972920
H   -0.58236342   1.18405184   2.79890791
O   -0.16385639  -0.06036808   0.11033484
H    0.49952898   0.58587271   0.35225331
H    0.10155886  -0.36321684  -0.75803676
O   -2.58696926  -2.17209616  -0.34457109
H   -3.23483651  -2.82296820  -0.61450712
H   -1.97136267  -2.12847535  -1.07625244
C    0.39112582  -2.46406873  -4.74879102
H   -0.25851354  -3.20205988  -5.17097339
H    1.37692337  -2.86911437  -4.65371043
H    0.41824359  -1.60569388  -5.38703575
C   -0.13172092  -2.05436761  -3.35941120
N   -0.52100409  -1.74932651  -2.32495478
C    2.98028603   3.71070198   2.47471729
H    3.92693854   3.21227781   2.45675807
H    2.82820811   4.15286508   3.43714298
H    2.96482177   4.47402427   1.72505134
C    1.85894755   2.69306058   2.19434968
N    1.02406008   1.93538031   1.98560325
