22
Energy:   -383.70550222
Na   0.62450914  -1.03548378   0.74785608
O    0.40315556  -3.25166597   1.37975201
H    1.15195145  -3.79687503   1.62117204
H   -0.34595983  -3.84688697   1.40749982
O   -0.34969424   0.57157992   2.17084876
H   -1.16809393   0.99117212   1.90552599
H   -0.21914593   0.85160917   3.07681377
O   -0.90443734  -0.71478247  -0.91939204
H   -1.08537018  -0.99272925  -1.81730114
H   -1.57902274  -0.06279505  -0.72944786
C   -4.39555155   3.00139099  -1.46479126
H   -3.82923167   3.74884451  -1.98005353
H   -5.04227437   3.47115995  -0.75347853
H   -4.98158119   2.44910937  -2.16938574
C   -3.43638512   2.04437151  -0.73286676
N   -2.72224212   1.33182700  -0.18791570
C    5.29020584  -0.12353363  -0.91743347
H    5.48412035   0.92749750  -0.86614114
H    5.28864042  -0.43641366  -1.94066498
H    6.05147640  -0.65313979  -0.38368864
C    3.91770397  -0.42368299  -0.28676004
N    2.89581394  -0.64715783   0.18280500
