22
Energy:   -369.05293099
Na  -0.00059784   1.04612726   0.17502679
O   -1.07615007  -0.76112687  -1.29217913
H   -1.94085816  -0.90103816  -1.67810219
H   -0.49135805  -1.31906963  -1.80496566
O    0.86824084   1.89091855   2.24210432
H    1.60268293   2.43190784   2.53220301
H    0.60400129   1.40583331   3.02383421
O   -1.19137484   2.19128065  -1.52391575
H   -2.12481247   2.13906053  -1.72933995
H   -0.86494482   2.90597148  -2.07062619
C   -3.26384353  -2.20325645   2.04543886
H   -4.23581162  -1.80192234   2.24319919
H   -2.98832437  -2.87443601   2.83189056
H   -3.27850884  -2.73111997   1.11482395
C   -2.24036879  -1.05514979   1.96829894
N   -1.47834533  -0.20033220   1.91086477
C    4.38470430  -0.75347575  -1.74711657
H    4.84361097  -1.40677917  -1.03472659
H    5.02895078   0.08032335  -1.93319350
H    4.21549302  -1.28430084  -2.66062156
C    3.04052376  -0.24926239  -1.18984863
N    2.03972025   0.12614738  -0.77493732
