22
Energy:   -371.07895236
Na  -0.13637883  -0.79329719   0.65139422
O   -0.29307880   0.31826795   2.72533013
H   -0.86005458   0.98735517   2.34180359
H   -0.18669732   0.58798626   3.63756193
O    0.41189258  -0.53326390  -1.61329396
H    0.51513925  -1.07343805  -2.39673755
H    0.50506230   0.36597341  -1.92781505
O   -1.55201871   1.44402046   0.56082618
H   -2.39949440   1.88456733   0.49809454
H   -1.00259355   1.88748088  -0.08547615
C   -0.00459811  -5.74719186   1.59896013
H    0.15731006  -5.80144793   2.65524712
H    0.75559689  -6.30443299   1.09251668
H   -0.96429003  -6.15771918   1.36367770
C    0.04950168  -4.27623793   1.14622648
N    0.08978144  -3.18104587   0.80914570
C    1.25925442   4.59153781  -2.63674656
H    0.51110073   5.35502726  -2.58931159
H    1.52845958   4.41892012  -3.65783951
H    2.12308115   4.90407053  -2.08808840
C    0.70531656   3.29130836  -2.02506344
N    0.29288465   2.32322844  -1.56963756
