22
Energy:   -382.51939761
Na  -0.99437066   0.01735462   0.35522329
O    0.41742457  -0.20281162  -1.44292590
H    1.34367079  -0.22647275  -1.20263455
H    0.41156635  -0.34157351  -2.38999648
O   -1.07147853  -2.06215912   1.38916004
H   -1.77875482  -2.41560274   1.92866880
H   -0.42344026  -2.76565145   1.35205494
O    0.46366136   1.40706436   1.56752476
H    0.35853078   1.91226463   2.37372083
H    1.36890822   1.56674129   1.30057301
C   -5.62022701   1.81895005  -0.60066105
H   -5.55173425   2.40538666  -1.49301805
H   -5.93216020   2.44119666   0.21199259
H   -6.33364262   1.03436480  -0.74336087
C   -4.24306717   1.20856492  -0.28056613
N   -3.21770907   0.75410544  -0.04224092
C    5.63005274  -1.09386553  -0.68754035
H    6.28151715  -0.25838887  -0.53763020
H    5.78606318  -1.49664901  -1.66648126
H    5.83941210  -1.84531312   0.04484907
C    4.16656900  -0.63509664  -0.54844883
N    3.07693884  -0.29352235  -0.44488888
