22
Energy:   -391.92774617
Na  -0.33290601  -0.09559348  -0.23319720
O   -2.18932909  -0.62754014  -1.53204400
H   -2.93503819  -0.06675062  -1.74573748
H   -2.37851570  -1.45636081  -1.97192645
O    0.70487181  -2.18086852  -0.44235329
H    0.65067976  -2.92163683   0.16143258
H    1.37712824  -2.43520013  -1.07450720
O   -0.99655605   2.09689816   0.23765040
H   -1.46708659   2.40882387   1.01065442
H   -0.74554112   2.89433957  -0.22851540
C   -1.25286453  -1.24616053   4.65670161
H   -0.32435560  -1.30494183   5.18520527
H   -1.75687865  -2.18819781   4.71530726
H   -1.86528509  -0.48611349   5.09507205
C   -0.98239143  -0.89962889   3.18077474
N   -0.78101192  -0.64162033   2.08188010
C    3.35143460   1.84813767  -3.18762853
H    2.91527688   2.32127989  -4.04249873
H    4.00420869   1.06341934  -3.50856813
H    3.90897997   2.56887946  -2.62675999
C    2.23721842   1.25924388  -2.30257124
N    1.40763383   0.82078569  -1.64360585
