22
Energy:   -370.41031823
Na  -0.34002495   0.33120509   0.77481919
O    0.23730359   2.00578435   2.31041932
H   -0.35427536   2.62773974   2.73402018
H    1.10935170   2.26067063   2.61174459
O   -0.75416817  -1.55935181   2.17305919
H   -0.28647647  -1.85025466   2.95592051
H   -1.41379570  -2.23636239   2.02212857
O    0.35873149   0.85912447  -1.68025837
H    0.23421937   1.60798542  -2.26329856
H    1.14544849   0.42565037  -2.01102780
C    4.16284043  -1.75010611   0.04949467
H    3.99304752  -2.69168465  -0.42956734
H    4.61997333  -1.91246278   1.00320789
H    4.80893209  -1.15195353  -0.55851697
C    2.81939423  -1.02215591   0.24143432
N    1.81913747  -0.48016390   0.38434211
C   -3.93379829   0.58172594  -2.65624478
H   -4.95190041   0.85968711  -2.47987628
H   -3.90425041  -0.35203926  -3.17788505
H   -3.45545720   1.33525274  -3.24640260
C   -3.19947146   0.44107796  -1.30992303
N   -2.65273175   0.33635914  -0.30752529
