22
Energy:   -393.10116526
Na  -0.00000009  -0.00000350   0.00000043
O   -0.35699588  -1.92947395  -1.25151405
H   -1.17674948  -2.23006516  -1.64379051
H    0.28302925  -2.60032021  -1.48934799
O   -0.25702066  -0.04875874   2.31260880
H   -1.05161189   0.12412689   2.81755156
H    0.40815764  -0.24616014   2.97200425
O    0.61402996   1.97827599  -1.06111652
H    1.49849439   2.29115162  -1.25102008
H    0.03871651   2.66141001  -1.40546255
C   -4.93501783   1.25169205  -0.52202990
H   -5.12415117   2.17536252  -0.01610338
H   -5.54507138   0.48150937  -0.09829367
H   -5.16757998   1.35988819  -1.56083090
C   -3.45006783   0.87506215  -0.36495210
N   -2.34445507   0.59464407  -0.24800054
C    4.93500542  -1.25173632   0.52205137
H    5.43370337  -0.50254105   1.10076285
H    5.39028754  -1.31797403  -0.44398686
H    5.01277099  -2.19638873   1.01852234
C    3.45006033  -0.87509068   0.36496498
N    2.34445121  -0.59466088   0.24800703
