22
Energy:   -391.92773268
Na   0.30263260   0.24057900  -0.16129720
O    1.98003520   1.58231758  -1.05703880
H    2.04145063   2.53727330  -1.03424495
H    2.76277320   1.30275878  -1.53180185
O   -0.97260865   2.00287033   0.69744880
H   -0.95110554   2.35822405   1.58598310
H   -1.71828082   2.43720761   0.28325561
O    1.24143971  -1.79087832  -0.84021488
H    1.04116659  -2.28876089  -1.63282794
H    1.80683630  -2.37018033  -0.32936487
C    1.46689793  -1.02156596   4.64829487
H    0.58443953  -0.96573420   5.25083132
H    2.20307507  -0.34563231   5.03046760
H    1.85240467  -2.01942497   4.67198098
C    1.12259143  -0.63858941   3.19695686
N    0.86623960  -0.35344596   2.11636975
C   -3.36961796  -0.49576273  -3.63308610
H   -3.78400343   0.44716716  -3.92303106
H   -4.13794347  -1.10761059  -3.20856614
H   -2.95866177  -0.98398929  -4.49195100
C   -2.25886601  -0.26959168  -2.59064821
N   -1.43186070  -0.10119705  -1.81450581
