22
Energy:   -392.53973331
Na   0.58967315   0.27028478  -0.92716947
O    0.71073732   2.59241429  -1.06421059
H    1.03220641   3.17903426  -0.37954536
H    0.42297384   3.17695676  -1.76544816
O    0.09490062   0.02951809  -3.20778958
H    0.56925053   0.24672070  -4.01031499
H   -0.72744884  -0.35474978  -3.51161749
O    2.44516719  -1.13273151  -1.04717909
H    2.70976541  -1.73442301  -1.74301454
H    3.09859687  -1.25918473  -0.35923209
C    1.01994709   0.49388855   4.14677269
H    0.19919512   1.07702645   4.50901099
H    1.93960164   0.92383415   4.48482799
H    0.93699614  -0.50684989   4.51628696
C    0.99698862   0.47612089   2.60704635
N    0.97989499   0.46289206   1.46065010
C   -3.83890918  -1.78521321   0.47444836
H   -4.45556541  -2.08029699  -0.34869247
H   -4.35575312  -1.05734247   1.06434295
H   -3.61619775  -2.64035897   1.07779274
C   -2.52805191  -1.17733117  -0.05821723
N   -1.55205908  -0.72473536  -0.45481097
