22
Energy:   -375.10042782
Na   0.07149247   0.19404801  -0.09017271
O   -0.59743554  -2.28770643  -0.41018385
H   -0.03802203  -3.06337336  -0.36982049
H   -1.19673946  -2.46154442  -1.13602612
O   -0.12263083   0.30555119   2.22139911
H   -0.95067597   0.33507727   2.70067074
H    0.52007859   0.01878348   2.87018316
O    0.58646608   2.36222704  -1.07860770
H    1.43619046   2.60272484  -1.44787877
H   -0.02997703   2.97902430  -1.47331124
C   -4.83911786   1.14127471  -0.23911997
H   -4.90135241   2.06102058   0.30410611
H   -5.42237259   0.39387228   0.25696733
H   -5.21427748   1.28655403  -1.23060787
C   -3.37014376   0.68413455  -0.30795303
N   -2.27642578   0.34377292  -0.35920237
C    4.88002225  -1.44189042  -0.09991690
H    5.54059145  -0.81226680   0.45876244
H    5.29471714  -1.62269881  -1.06957434
H    4.75476675  -2.37223621   0.41356812
C    3.51271758  -0.74884512  -0.24745048
N    2.49469710  -0.23284140  -0.35729594
