22
Energy:   -372.41775012
Na   1.24494757  -0.30605452   0.11413424
O    2.29061476   0.83981468   1.93045150
H    2.18078993   0.37994457   2.76273140
H    2.82276349   1.60525279   2.14760140
O    2.86966490  -0.60626382  -1.64808301
H    3.00445827  -0.17988911  -2.49440871
H    3.56973796  -1.25670869  -1.59284692
O    1.75192071  -2.62221496   0.54277910
H    2.14703345  -3.22885246  -0.08340675
H    1.35027352  -3.18682418   1.20317883
C   -3.20996285  -0.61482741  -2.22091188
H   -3.33012492   0.13888505  -2.97083106
H   -3.83961542  -0.39028148  -1.38543844
H   -3.48101057  -1.56738688  -2.62595838
C   -1.74068155  -0.65181470  -1.76108103
N   -0.64673484  -0.67935342  -1.41871606
C   -2.73860687   2.81567165   1.50710060
H   -2.67871705   3.24337715   2.48607016
H   -3.67139306   2.30284672   1.39838252
H   -2.67085839   3.59205227   0.77392780
C   -1.57979375   1.82077048   1.30980944
N   -0.71700470   1.08002134   1.16291720
