22
Energy:   -369.40680478
Na   0.64555339  -0.86733652   0.31681315
O   -1.01965159  -1.84974289   1.73322892
H   -1.91151965  -1.74695500   1.40120806
H   -1.10064309  -2.48268600   2.44670999
O    0.97351079  -1.22776386  -2.04526073
H    1.65730184  -0.72616427  -2.48917456
H    0.99942565  -2.08936802  -2.46143200
O    2.89737414  -1.48100648   0.37607211
H    3.38911822  -1.34605675   1.18613888
H    3.54831081  -1.79861154  -0.24973963
C    0.00302392   3.24214887   2.96883040
H    0.46299929   3.17803836   3.93278719
H   -1.05914239   3.16824578   3.07484992
H    0.25196210   4.17932447   2.51646908
C    0.51144476   2.09195092   2.07992493
N    0.88998718   1.23557627   1.41809439
C   -2.46494480   0.67577242  -3.19943313
H   -3.31257183   1.32878620  -3.19816361
H   -2.68897383  -0.19832426  -3.77446799
H   -1.62609098   1.18104268  -3.63062371
C   -2.12988303   0.26675433  -1.75304528
N   -1.88041430  -0.03777822  -0.67614378
