22
Energy:   -392.53439651
Na   0.22497209   1.07782466  -0.25080077
O    1.22244096   1.14535092  -2.35467054
H    0.94707902   1.61036481  -3.14471467
H    1.99931721   0.65492969  -2.62333792
O    1.12143756   2.09665787   1.64237179
H    0.81393795   2.86440910   2.12427832
H    1.87895494   1.78858787   2.13985760
O   -1.18916237   2.89067368  -0.71797376
H   -2.14242044   2.80396143  -0.72142204
H   -1.03102808   3.80996262  -0.93276024
C    2.70065701  -3.24238748   0.84005478
H    2.41320375  -3.96666360   0.10677796
H    2.37002247  -3.56229443   1.80609797
H    3.76586456  -3.14127901   0.84306362
C    2.05713767  -1.88506261   0.50071415
N    1.57800828  -0.87447255   0.24805963
C   -3.69879949  -2.08228679   0.40188361
H   -4.32542578  -1.76742465   1.21003056
H   -3.26257904  -3.03053408   0.63733612
H   -4.28383699  -2.17033567  -0.48967548
C   -2.58273876  -1.04395923   0.18305871
N   -1.75178081  -0.27087717   0.02013363
