22
Energy:   -368.79465571
Na   0.69924107   1.00581833  -1.10095277
O    0.02000875   0.12021887   0.88008370
H    0.27569971   0.60679588   1.66372699
H   -0.47127258  -0.63061032   1.21344541
O    1.06600904   1.97301649   2.71160587
H    0.45946767   2.48613288   3.24550754
H    1.74051800   1.68342764   3.32594113
O    1.68963447   2.70560325   0.09108652
H    2.19982831   3.51233847   0.01958567
H    1.55695590   2.58813418   1.03174016
C   -2.78365955  -4.15220725   2.89526065
H   -2.99077080  -4.86361265   2.12331021
H   -3.70405721  -3.80078988   3.31272091
H   -2.19909779  -4.61724905   3.66136950
C   -2.00222014  -2.96477895   2.30283642
N   -1.42040298  -2.08068460   1.86174965
C    0.48705002   0.16877225  -6.07183799
H    0.44347902   1.10250964  -6.59254544
H   -0.38724039  -0.40584676  -6.29617780
H    1.35769373  -0.37134110  -6.38031197
C    0.55500834   0.42927018  -4.55555223
N    0.60560640   0.62322274  -3.42660856
