22
Energy:   -383.42713223
Na   0.09446970   0.58536011  -2.11027588
O   -1.58078806   1.50858623  -3.41487156
H   -1.84503157   1.32699951  -4.31677704
H   -2.20416234   2.16803686  -3.11030429
O    2.12421767   0.90560589  -3.17600372
H    2.40883073   1.64471168  -3.71354432
H    2.88978826   0.33280691  -3.13089439
O    0.01512672  -1.52323943  -1.20133573
H   -0.07836979  -2.43466603  -1.47844908
H   -0.00055872  -1.56036300  -0.24498451
C   -0.47320803   2.06103309   2.62340353
H   -1.36144489   2.62437516   2.81982441
H    0.37809924   2.60063107   2.98258183
H   -0.53272715   1.11600624   3.12168136
C   -0.33439372   1.83375575   1.10660572
N   -0.23104017   1.66453743  -0.02271920
C    0.04018679  -2.87161452   3.97906697
H    0.81172170  -2.45727520   4.59384904
H    0.23830406  -3.90927047   3.80901181
H   -0.90393449  -2.76472810   4.47111310
C    0.00344131  -2.12833974   2.63081166
N   -0.02391737  -1.57493789   1.62697430
