22
Energy:   -373.73912265
Na   0.58165544   0.35281415  -0.41092126
O    2.36219534   1.34405322   0.70230017
H    2.46490553   2.20155256   1.11506808
H    3.15335191   0.86381261   0.94657886
O   -1.34817631  -0.77351094   0.97873741
H   -2.27464744  -0.92761339   0.79397939
H   -1.25299990  -0.97192311   1.91029842
O    1.13647103   0.79611554  -2.66770503
H    1.67309714   0.20376769  -3.19438166
H    0.88684782   1.49515069  -3.27208070
C   -3.23156097   3.48455063   0.73480460
H   -4.08281892   3.11683950   0.20090515
H   -3.05372304   4.50426027   0.46376031
H   -3.41615522   3.42214309   1.78691170
C   -1.99665964   2.63597885   0.37907349
N   -1.07721946   2.00417858   0.11421551
C    1.22107230  -4.70269454   0.17625590
H    0.35733912  -4.95162718   0.75668482
H    2.10438304  -4.93009235   0.73567655
H    1.21716775  -5.27057066  -0.73060713
C    1.19851482  -3.19981499  -0.15907114
N    1.18171976  -2.08085286  -0.40873736
