22
Energy:   -369.14755650
Na  -0.04220193  -0.33198922  -0.70256703
O    1.97661335  -0.83598253  -1.93656515
H    2.48220908  -1.64584106  -2.00536901
H    2.61934943  -0.13961336  -2.07144344
O    0.88935005   0.53388775   1.72719154
H    0.12442818   0.94900508   2.12569370
H    1.56776034   0.58414941   2.40058970
O   -1.89738392  -0.85873724  -2.06801996
H   -2.64341301  -0.32154874  -2.33466759
H   -2.14034230  -1.74935425  -2.32101090
C   -0.32092512  -3.63832268   2.99411364
H   -0.74358699  -3.04316678   3.77644769
H    0.66807157  -3.93960978   3.26981409
H   -0.92767205  -4.50580142   2.83842842
C   -0.26276176  -2.81275171   1.69540289
N   -0.21945649  -2.19807660   0.72845371
C   -0.41400622   4.70783379  -0.99878762
H    0.29649286   5.17518657  -0.34942438
H   -1.40499621   4.95926875  -0.68316379
H   -0.26100111   5.05077947  -2.00072414
C   -0.23052166   3.17972865  -0.94560795
N   -0.09390906   2.04198491  -0.90601326
