22
Energy:   -383.82352568
Na  -0.04774489  -0.25252414  -0.12246957
O   -1.48616254   0.47150399  -4.06541581
H   -0.74704543   0.34991918  -4.66136454
H   -2.20917662   0.74131166  -4.63170754
O   -0.59530093  -1.94180275  -1.62288137
H   -1.15726884  -1.75725487  -2.37545429
H   -0.38116095  -2.87108329  -1.70542592
O   -0.89907002   1.35525147  -1.54073423
H   -1.14231930   2.27856661  -1.47327475
H   -1.15428344   1.10407774  -2.42843335
C    4.65777159   0.35552963   1.60591638
H    5.34657344  -0.25710436   1.06265605
H    4.66086697   0.06801508   2.63655933
H    4.94928283   1.38154412   1.52097786
C    3.24239600   0.17437644   1.02669669
N    2.18858453   0.03949965   0.59544130
C   -2.25115752  -0.16172432   4.43479241
H   -1.76398310  -0.83881199   5.10495175
H   -3.28432838  -0.42645688   4.34892198
H   -2.16880973   0.83572613   4.81322409
C   -1.58384888  -0.24179038   3.04919196
N   -1.08700727  -0.30140321   2.01754944
