22
Energy:   -390.46450926
Na  -0.22783387   1.16658149  -0.54590938
O    0.52288597  -0.79733502  -1.50061271
H    1.07303727  -1.33022238  -0.92650779
H    0.46023703  -1.30355395  -2.31058144
O    0.92898296   0.62975392   1.37908136
H    1.10471726   0.96131613   2.25965833
H    1.39274969  -0.20671027   1.34061161
O    0.31943736   3.14998309  -1.60597165
H    1.18064000   3.46317588  -1.88250760
H   -0.28393892   3.84609865  -1.86595635
C   -5.24706381   1.52151771  -0.01397444
H   -5.50271129   2.37065016   0.58478981
H   -5.57793539   0.62849816   0.47381564
H   -5.72181918   1.60287821  -0.96942559
C   -3.71961924   1.46758394  -0.20266535
N   -2.58236734   1.42742780  -0.34315431
C    3.62106714  -3.98841601   1.46550171
H    4.63730612  -3.81096757   1.18147608
H    3.27459301  -4.89044194   1.00593235
H    3.55954677  -4.08377612   2.52946637
C    2.74564821  -2.80831671   1.00440808
N    2.09385903  -1.92967914   0.66110291
