13
Energy:   -814.87360602
O   -1.27541491   0.73429242   1.58751570
H   -1.35626243   0.10831920   2.30713578
H   -1.73101072   1.51683628   1.89782105
O   -0.44567925   1.21338001  -1.84511807
H    0.23325713   1.22237088  -2.51980052
H   -1.23260249   1.52474137  -2.29237388
O    1.56079956   0.11135740   1.02946496
H    2.37168958   0.19563478   0.52788093
H    1.83262490  -0.27498693   1.86197976
O    0.10280663  -1.89952821  -0.80967742
H    0.63413254  -2.58922184  -0.41187430
H   -0.56431746  -2.36915233  -1.31030750
Ca  -0.11125709   0.47247836  -0.00225294
