13
Energy:   -817.17396999
O    0.55400745  -2.10957597  -0.56336021
H    1.12615181  -2.84133169  -0.33224065
H   -0.32702475  -2.48375286  -0.56095551
O   -1.44847356   0.98667074   0.89655122
H   -2.18473167   0.64177843   1.40172954
H   -1.49927152   1.93511547   1.01531153
O    1.26644319   0.70429869   1.51297785
H    1.19546733   0.65617668   2.46632907
H    1.92838016   1.37750277   1.35528332
O   -0.21770480   0.38807269  -1.99093848
H   -1.02228032   0.67895021  -2.42021735
H    0.33911477   0.08199874  -2.70683132
Ca   0.23200928   0.00086795   0.00610716
