13
Energy:   -812.85448861
O   -0.48710024   1.18263910  -1.81638882
H    0.15380415   1.16416934  -2.52711540
H   -1.17427818   1.77155630  -2.12814973
O   -1.33116723   1.08733857   1.00597711
H   -0.89891773   1.15747722   1.85713678
H   -2.01813944   1.75346211   1.03006969
O    0.64207890  -0.66808767   1.66616441
H    1.50709663  -0.44944781   2.01282389
H    0.14073222  -0.94896234   2.43166606
O    1.08515918  -1.64794485  -0.94235533
H    1.17384649  -1.94646621  -1.84748041
H    1.39057052  -2.38619430  -0.41515185
Ca  -0.15112841  -0.05007324  -0.31573742
