13
Energy:   -814.64326388
O    0.07613912  -0.00972046   1.75989717
H    0.52605962   0.59301182   2.35194209
H   -0.20863799  -0.73032229   2.32191750
O   -1.46286465  -1.18349310  -0.76035190
H   -2.18341496  -1.39106303  -1.35529209
H   -1.42967929  -1.92485346  -0.15577321
O    2.06414488  -0.71288561  -0.22521020
H    2.91411776  -0.51122225  -0.61650272
H    2.27360399  -1.03069237   0.65305945
O   -0.67801779   1.96170725  -1.05810273
H   -0.77671573   2.50006440  -1.84338112
H   -1.23830430   2.38301109  -0.40632519
Ca   0.13975632   0.02943274  -0.57632673
