13
Energy:   -811.88052365
O   -1.65507717   1.37063918  -0.64353460
H   -1.64240117   2.11377044  -1.24671541
H   -2.50441772   1.43093961  -0.20625171
O   -0.74291974  -1.17968561   1.47466971
H   -0.37523618  -1.90162280   0.96491748
H   -1.08932097  -1.59541542   2.26423082
O    1.74251311   1.22829920   0.12427625
H    2.27506119   0.81683503  -0.55640108
H    2.32310432   1.87535157   0.52486198
O    0.54145702  -1.25471324  -0.78518169
H    1.31282016  -1.82147380  -0.78881761
H    0.06465115  -1.49323413  -1.58016332
Ca  -0.21203060   0.36148419   0.40738528
