13
Energy:   -816.05873509
O   -1.43847414  -1.30736467   0.77661435
H   -1.67008436  -1.37764059   1.70270821
H   -1.97670571  -1.97001155   0.34367356
O   -0.65086086   1.52378046  -0.21550950
H   -1.58593253   1.51255991  -0.01118887
H   -0.38326307   2.43046406  -0.06534919
O    1.70899870   0.22699055   1.41634735
H    2.39854271   0.86096971   1.61340401
H    1.26346445   0.08940183   2.25229018
O    0.67117491  -0.51900144  -2.15679107
H    0.26460168   0.13318329  -2.72739175
H    0.85436274  -1.26110731  -2.73294465
Ca   0.43469046  -0.33946924  -0.11046915
