13
Energy:   -814.62039411
O    1.91736230  -0.95123713  -0.30794398
H    2.39604152  -0.98733854   0.52018326
H    2.50914366  -1.35169501  -0.94485854
O   -0.82853503  -1.40905462  -0.77759619
H   -1.64799945  -1.58198171  -1.24106801
H   -0.43048487  -2.27208679  -0.66373930
O   -0.91266557   0.30962325   1.87028005
H   -1.01437915  -0.42775715   2.47207432
H   -1.00763511   1.08533254   2.42298949
O   -0.16589432   2.09905042  -0.96119885
H    0.33777160   2.91204117  -1.00118068
H   -1.04342849   2.34578379  -1.25324040
Ca  -0.12961278   0.22887395  -0.04325222
