13
Energy:   -813.89844681
O   -1.00117582   1.58040143   1.17749859
H   -1.81706648   1.45193036   1.66128518
H   -0.85244874   2.52559109   1.20449150
O   -0.10599647   0.18293500  -1.97041543
H   -0.38262453  -0.51363728  -2.56581096
H    0.28140270   0.84663884  -2.54107376
O   -0.66318920  -1.57386634   1.30630705
H   -1.27485674  -1.67933209   2.03498507
H   -0.13518718  -2.37217166   1.31872964
O    1.75704674  -0.18649734  -0.34862942
H    2.70195514  -0.26600564  -0.21802164
H    1.65948617   0.01419847  -1.27945431
Ca  -0.18056644  -0.01331973   0.14679834
