13
Energy:   -828.28256176
O   -0.44905186  -1.93507937   0.61250168
H   -1.26851724  -2.42951020   0.59680185
H    0.07078588  -2.35383147   1.29853903
O   -1.77457299   1.12053491   0.09469331
H   -2.56149201   0.75217516  -0.30693013
H   -2.10310341   1.67073925   0.80573114
O    1.12509334   0.10148959  -1.97659073
H    1.98724767   0.47828601  -2.15250608
H    0.81813996  -0.20430503  -2.83011351
O    1.27058383   0.73281194   1.10350211
H    0.67284722   1.12963147   1.73712429
H    2.14154807   1.00640651   1.39125053
Ca  -0.02646270  -0.09039591  -0.31969598
