13
Energy:   -813.73839755
O    0.71693186   1.82265480  -0.35345925
H    1.20297832   2.16417327  -1.10402959
H    0.14632510   2.54411803  -0.08863748
O   -0.98807924  -0.12116844   1.47300858
H   -1.75919761  -0.68644498   1.51851398
H   -1.15790904   0.56853410   2.11464718
O    1.40318148  -1.91049501   0.74774619
H    1.15446022  -2.49090826   1.46711400
H    2.20734570  -2.29360472   0.39734828
O   -0.98027862   0.09314959  -1.77765692
H   -1.87737854  -0.07041703  -2.06867163
H   -0.58401703   0.59345146  -2.49103384
Ca   0.48816932  -0.16894987   0.13103249
