13
Energy:   -813.29653773
O   -1.81584646  -1.01512181   0.98063014
H   -1.44430042  -1.84837113   1.27025224
H   -2.70185211  -1.23465989   0.69248283
O   -0.82626266   0.62581132  -1.71046614
H   -0.64448727   1.44477343  -2.17143319
H   -0.96087962  -0.01684099  -2.40696318
O    1.51339608  -0.98850468  -0.31606142
H    1.54750084  -1.16934633  -1.25540428
H    2.27334827  -1.44566366   0.04409156
O    0.90259736   1.54011582   1.35863182
H    0.82229159   2.46166096   1.60467531
H    1.82971185   1.33802253   1.48452409
Ca  -0.41933218   0.24759675   0.28681742
