13
Energy:   -835.59914294
O    0.76199532  -1.61576900   0.93197728
H    0.84931949  -2.53962564   0.69725348
H    0.90252302  -1.59433599   1.87856296
O    1.07386896   1.64720710   0.37272649
H    0.99126978   2.60017199   0.33712955
H    1.90024049   1.49490357   0.83114286
O   -1.79830969   0.07094376   0.91779969
H   -1.76737465   0.73226824   1.60912074
H   -2.55626220  -0.47074098   1.13761204
O   -0.06218214  -0.07563199  -2.42978673
H   -0.56145605   0.50299616  -3.00610858
H    0.26717418  -0.76399429  -3.00763931
Ca   0.01425995  -0.00338400  -0.17664791
