13
Energy:   -813.77831816
O    0.18754228  -1.63180117   1.13358532
H    0.44035441  -2.49504413   0.80627892
H    0.10667471  -1.74830208   2.08022138
O    0.14028473   1.42152852  -1.26413681
H    0.14232415   2.36534753  -1.42361523
H   -0.07721957   1.03525976  -2.11250004
O   -0.60498742  -1.20499049  -1.51097640
H   -0.21883448  -1.76819200  -2.18173852
H   -1.51138152  -1.08243005  -1.79321836
O    0.36183730   1.41910565   1.75853683
H    0.09044662   2.32790280   1.88763635
H    0.99177540   1.25477032   2.46025169
Ca  -0.10722365   0.11815602   0.10804192
