13
Energy:   -816.32202311
O    0.88721030   1.61637320   0.66195912
H    1.11342563   1.58126112   1.59138132
H    1.25700450   2.44457811   0.35608213
O   -0.34982663  -2.31302346   0.11564495
H    0.00254573  -3.02163398  -0.42281277
H   -0.81815359  -2.75830705   0.82177824
O    1.23055855  -0.00957297  -1.61888403
H    1.75205850   0.73484563  -1.31869974
H    1.63420463  -0.26664467  -2.44786885
O   -1.84911487   0.57408549   0.68762823
H   -1.76943428   1.39824736   1.16787823
H   -2.77234581   0.33569796   0.77157980
Ca  -0.30885804  -0.27495454  -0.31783248
