13
Energy:   -823.76785555
O    0.62167756  -1.43124145   0.63178239
H    1.50511504  -1.79640574   0.68102796
H    0.10469126  -1.97243276   1.22849755
O   -0.94618545   0.75616095   1.99063765
H   -0.61589410   0.81403064   2.88718133
H   -1.86193668   1.02742129   2.05427226
O   -1.12143801  -0.67322550  -1.75984069
H   -2.04690381  -0.90789732  -1.69147372
H   -0.94047907  -0.68180632  -2.69974072
O    1.45906808   1.36370450  -0.96956028
H    1.71915980   2.23889827  -0.68212331
H    2.21225107   1.03959582  -1.46342342
Ca  -0.10861765   0.24228471  -0.16786947
