13
Energy:   -813.76094559
O   -2.03794345  -1.03948008  -0.03736783
H   -2.47885814  -1.61800612   0.58483287
H   -2.57372326  -1.08570787  -0.82922313
O    0.45391346  -0.48228153   1.92291159
H    0.02133819  -0.18455154   2.72320362
H    1.33006178  -0.74331621   2.20656080
O    1.46556986  -0.17840346  -1.17333824
H    1.82713843   0.36124563  -1.87638794
H    2.05463927  -0.93108581  -1.12139256
O   -0.02037924   1.73434178  -0.61301316
H   -0.54154783   2.15889655  -1.29445897
H    0.80140096   2.22495929  -0.59874389
Ca  -0.25469972  -0.26539101   0.05894056
