13
Energy:   -811.15202622
O    0.20553838  -0.51525683  -2.01216294
H    0.74115842   0.00072332  -2.61474697
H   -0.34697115  -1.05129082  -2.58105011
O   -2.01754378   0.21826176   0.52583470
H   -2.43179034   1.01463935   0.85812128
H   -2.62553133  -0.48350147   0.75845318
O    1.21652606  -1.63611730   1.03383424
H    1.14420508  -1.69017455   1.98676621
H    1.55423176  -2.49197916   0.76985097
O    0.72559304   1.97128971   0.21537042
H    0.04607798   2.55422397   0.55401297
H    1.52257357   2.24116001   0.67168601
Ca   0.21982952  -0.17238862  -0.04115657
