13
Energy:   -818.74189131
O   -1.15173903   0.46643516   1.62932785
H   -0.69254937   0.13159838   2.39956225
H   -2.07421685   0.27403110   1.79739690
O   -0.75064283   0.81525057  -1.78549138
H   -1.48745752   0.41313053  -2.24552989
H   -0.55677005   1.60640101  -2.28821016
O   -0.04848181  -2.14575024   0.10078147
H    0.49920649  -2.79203439  -0.34484861
H   -0.25858382  -2.54911331   0.94303275
O    1.81324839   1.08214065  -0.05997202
H    2.56850048   0.54114298   0.17056571
H    2.16829316   1.96721267  -0.14257091
Ca   0.05227113   0.07949321  -0.12526974
