13
Energy:   -814.23280738
O   -0.62560315  -1.07376368  -1.73498380
H   -0.47854241  -2.00618843  -1.89369443
H   -0.89994221  -0.72621950  -2.58361975
O   -1.24540880  -1.17404846   1.56057626
H   -1.39046576  -0.85649062   2.45183792
H   -1.59448538  -2.06532190   1.56358226
O    1.34220726   0.49371521   1.38937727
H    1.78073477   1.23922224   0.97932270
H    1.48530812   0.61750962   2.32768902
O    0.49826409   1.67593658  -1.11262385
H    0.05025349   2.45877136  -1.43307363
H    1.30721133   1.63660807  -1.62280958
Ca  -0.24010221  -0.19971468   0.05925726
