13
Energy:   -819.01520973
O    0.34118705   2.20951730  -0.13238621
H    0.84818211   2.73864468  -0.74818818
H    0.28555395   2.74766934   0.65725244
O   -1.23564243  -0.09788098   1.30445770
H   -1.15119462  -1.02596903   1.52298227
H   -1.59152908   0.30386846   2.09703194
O    1.21574649  -1.05763600   0.69028834
H    1.08590688  -2.00218106   0.77518912
H    2.07762446  -0.89832762   1.07502077
O   -0.44761249  -0.80032036  -2.05359845
H    0.19175052  -1.33589599  -2.52328508
H   -1.28644193  -1.23295404  -2.21305095
Ca  -0.29841749   0.35300062  -0.39174243
