13
Energy:   -816.13691008
O    1.44132170   0.96993694   0.38627206
H    1.63705019   1.90670841   0.36674228
H    2.27532913   0.55505210   0.60657642
O   -0.55312425  -0.62956198   1.59589307
H   -0.52616742   0.09147920   2.22486429
H   -0.63813273  -1.41562473   2.13543987
O    1.20344030  -1.27217346  -1.52049231
H    1.42940356  -2.20231922  -1.51934178
H    1.69439222  -0.90684789  -2.25651900
O   -2.21810668   0.90238634  -0.44155931
H   -3.06051893   0.61248864  -0.09151249
H   -2.44228217   1.38681860  -1.23610483
Ca  -0.19576101   0.01998600  -0.29468355
