13
Energy:   -833.21674222
O    0.88479010   0.93135887   1.29577235
H    0.27397876   1.23675075   1.96650117
H    1.74531228   1.20743138   1.61123614
O   -2.04423473   0.12622893   0.04578510
H   -2.60925577   0.75691735  -0.40055018
H   -2.57151005  -0.19171561   0.77867244
O    0.90794447  -1.87202716   0.43607967
H    1.61122428  -2.51673432   0.35873605
H    0.50222039  -2.05983852   1.28245235
O    0.40187733   0.68897234  -2.01247695
H    0.92609452   1.38964385  -2.40040429
H   -0.28262899   0.51547260  -2.65868186
Ca   0.19409957  -0.16237480  -0.19727243
