13
Energy:   -824.57741482
O   -0.09055290   1.92827342   0.70512733
H   -0.52796648   2.01673553   1.55193053
H    0.58743240   2.60391976   0.71348243
O   -1.78466104  -0.58630268  -1.16587932
H   -1.92216904  -1.49501920  -1.43338197
H   -2.61765559  -0.15282465  -1.35148297
O    1.40700748  -0.21849192  -1.27191619
H    1.14223270   0.17238507  -2.10458740
H    2.28662825  -0.55871938  -1.43545340
O    0.44911274  -1.17730672   1.60608491
H    0.11200749  -0.72016248   2.37654648
H    1.10005641  -1.78662442   1.95427469
Ca  -0.14782154   0.00398303  -0.08530352
