13
Energy:   -830.20587964
O    0.26909931   1.81470735   0.37679485
H    0.50003956   2.36729556   1.12348402
H    0.46990446   2.35125760  -0.39003171
O   -0.07024725   0.27197790  -1.89135345
H    0.71117263   0.27921960  -2.44413040
H   -0.79178820   0.45408360  -2.49339000
O   -1.62811920  -0.65402352   1.73435810
H   -2.55649160  -0.42092412   1.72975296
H   -1.49727155  -1.10186451   2.57015066
O    1.30869925  -1.49081430  -0.09943553
H    2.10257427  -1.15372496  -0.51460426
H    1.45562082  -2.43420401  -0.03115845
Ca  -0.23389897  -0.28339195   0.29761142
