13
Energy:   -822.18822206
O   -1.56083752  -0.61322938   1.40149668
H   -2.41454309  -0.43594135   1.00654401
H   -1.76558946  -0.96388702   2.26829984
O    0.59565583  -1.97930310  -0.39590656
H    1.48932219  -1.99014995  -0.73865228
H    0.25124331  -2.84965551  -0.59615280
O    1.88503272   0.83566924  -0.19029884
H    2.69734742   0.93027580   0.30712079
H    2.00960309   1.38963596  -0.96090571
O   -0.87663575   1.62270322  -0.72081209
H   -0.86707756   2.07094717  -1.56651762
H   -1.44863958   2.15874400  -0.17153642
Ca  -0.02084541  -0.11567705   0.34486662
