13
Energy:   -812.69569835
O   -0.74469757  -2.07256184   0.77515335
H   -1.11787731  -2.33235320   1.61745803
H   -0.90729306  -2.82009188   0.19983310
O   -1.48385702   0.87378272   0.72751397
H   -2.41065169   0.78210051   0.94859734
H   -1.26200998   1.76743318   0.98905668
O    1.34006974   1.25975715   0.34519248
H    2.24408349   1.43820957   0.60431742
H    1.18404799   1.84226871  -0.39815760
O    0.84754959  -0.24534993  -1.70375890
H    0.52713957   0.15360929  -2.51270934
H    1.80004599  -0.16842257  -1.75911799
Ca   0.00654631  -0.42605393   0.09919009
