13
Energy:   -833.41479355
O   -1.87193700   1.29711702  -0.48681879
H   -2.57330822   0.86821009  -0.97707291
H   -1.96137626   2.22541691  -0.70243836
O    1.35130443  -0.58373766  -1.60579316
H    2.30371740  -0.50970869  -1.66630004
H    1.11778550  -1.22839325  -2.27371525
O   -0.51337778  -1.62299772   0.77408831
H   -0.81161866  -1.83697644   1.65811169
H   -0.59219879  -2.44431203   0.28884414
O    1.08974117   1.11013504   1.34076227
H    0.63181723   1.67885283   1.95971105
H    1.84843352   0.78768155   1.82722041
Ca  -0.05574068   0.16831962  -0.16778390
