13
Energy:   -811.38142791
O    0.89703009   0.83579239  -1.53278049
H    1.78086409   1.03387499  -1.84234890
H    0.33646752   0.98840852  -2.29351026
O   -0.77162119  -1.65814986  -1.18070727
H   -0.53144299  -1.67157791  -2.10718769
H   -1.41546133  -2.36056074  -1.08948958
O   -0.34558496  -0.92884670   2.04706112
H   -1.16359176  -1.06660786   2.52467875
H    0.32765637  -0.90180107   2.72694824
O    0.19834630   1.62835134   0.88523586
H    0.45846293   2.06449459   0.07384800
H    0.34008347   2.28523742   1.56688321
Ca  -0.11199824  -0.20476795   0.11492835
