13
Energy:   -836.73491493
O    1.60355532   0.73155159   0.41868650
H    2.12271915   1.33510257  -0.11275209
H    1.95690797   0.82588380   1.30326278
O   -0.61409015  -0.41720111   1.95831755
H   -0.03929337   0.16972988   2.44959397
H   -0.91749662  -1.05347501   2.60587596
O   -0.22020980  -1.94175911  -1.15548421
H   -0.98532288  -2.36077424  -1.54951485
H    0.50014599  -2.54861228  -1.32592076
O   -0.95079499   1.48777245  -1.27532259
H   -1.65918969   2.11135746  -1.11547721
H   -0.48204093   1.84521227  -2.02946996
Ca  -0.24337787  -0.12243256  -0.16064640
