90
Energy:   -538.85373853
O   -3.20934897   2.94457886  -0.49759412
H   -2.28113748   3.21719413  -0.44731877
C   -3.60765428   2.53196428   0.79995583
H   -4.65535638   2.22827970   0.72524860
H   -3.53906016   3.34153268   1.54337441
H   -3.02822640   1.67125869   1.16904463
O    2.06747580   2.75820731   0.31061989
H    2.11391717   1.88194545   0.72102411
C    3.31633451   3.39799127   0.51933547
H    3.24664015   4.38346493   0.05085969
H    4.15452548   2.85686131   0.05308275
H    3.54686144   3.54280492   1.58641732
O    2.05400072   0.17580081   1.44116551
H    1.21039892  -0.23893150   1.20716467
C    2.35352457  -0.18371048   2.78040816
H    3.30657559   0.29172893   3.02766579
H    2.46975126  -1.27075887   2.91305238
H    1.59731860   0.17480627   3.49622629
O   -3.25519919  -1.30387356  -2.17177493
H   -2.78160843  -0.73609674  -2.79768591
C   -4.43910598  -0.62457108  -1.78519167
H   -4.96031109  -1.27800483  -1.08031241
H   -5.11399193  -0.43001557  -2.63339828
H   -4.23457119   0.33108355  -1.27758251
O   -0.46638170   3.72162353  -0.48415169
H    0.43052495   3.46711493  -0.22107927
C   -0.35845723   4.82377750  -1.37079857
H   -1.37753397   5.09753066  -1.65720214
H    0.19972248   4.57866436  -2.28793122
H    0.11202667   5.70220347  -0.90198085
O   -1.09640731  -1.34586055   4.11049719
H   -1.08760961  -0.39346613   3.93360527
C   -2.41196223  -1.81697086   3.86574403
H   -2.40403264  -2.89111905   4.06977339
H   -2.72876571  -1.67020516   2.82129551
H   -3.16042664  -1.34982008   4.52479525
O   -1.77256269   0.48436156  -3.77520732
H   -0.81824989   0.54187872  -3.93141912
C   -2.26410492   1.80628881  -3.62214406
H   -3.34015148   1.72303331  -3.44699409
H   -2.11133628   2.42355185  -4.52126886
H   -1.81763341   2.32903749  -2.76181020
O   -0.99758675   1.26147396   3.01236022
H   -0.85963705   0.81693934   2.16278260
C   -0.42766052   2.55714550   2.91773923
H   -0.59193425   3.04386259   3.88293652
H   -0.90207287   3.17454825   2.13894266
H    0.65690205   2.53184779   2.72836818
O   -2.53490589  -2.48935199   0.27866826
H   -2.84663468  -2.17299485  -0.58224206
C   -1.83665629  -3.70533334   0.06332984
H   -1.49248341  -4.04770852   1.04302850
H   -0.95446320  -3.58025223  -0.58386983
H   -2.47543201  -4.49184129  -0.36811906
O   -0.64151019  -0.44511099   0.78778599
H   -1.22736945  -1.21439487   0.72952349
C   -0.71543278   0.24682674  -0.44845484
H   -0.04972540   1.11021584  -0.36552032
H   -1.72894705   0.61711324  -0.66857767
H   -0.37663988  -0.36499955  -1.29914003
O    0.53132939  -3.11928183   2.65114837
H   -0.04666898  -2.52113538   3.14769846
C    0.75100775  -4.26921339   3.45235534
H    1.40379901  -4.93219876   2.87807390
H   -0.17866014  -4.81547019   3.67618216
H    1.25399904  -4.03494639   4.40361559
O    4.64391631  -0.04511444   0.28643121
H    3.76194256  -0.02609411   0.68666090
C    4.47726499  -0.05026080  -1.12237489
H    5.48019880  -0.07177072  -1.55728441
H    3.96365149   0.85058824  -1.49311672
H    3.92990808  -0.93536806  -1.48260104
O    1.67658254  -2.94935728   0.08404571
H    1.25297705  -2.98450870   0.95453181
C    3.04272778  -3.29080948   0.25606715
H    3.50473971  -3.24627871  -0.73390618
H    3.17992849  -4.30950148   0.65131378
H    3.57713896  -2.58786268   0.91413083
O    1.03052190   0.63548712  -3.84039817
H    1.34018488  -0.17534201  -3.41017935
C    1.68243579   1.72993649  -3.21612049
H    1.32222431   2.63498159  -3.71273527
H    2.77742492   1.69231993  -3.32730113
H    1.44462332   1.81120365  -2.14391798
O    1.50997539  -1.80927347  -2.48836843
H    1.57897139  -2.17453528  -1.59380337
C    0.51430759  -2.54704955  -3.17892318
H    0.44958248  -2.12258806  -4.18447193
H   -0.47832216  -2.46484310  -2.70913002
H    0.76606582  -3.61486359  -3.27467451
