90
Energy:   -535.13693876
O   -2.99883123   1.36981742  -0.95253665
H   -2.30148969   1.98185718  -0.67406694
C   -3.76301613   1.03694864   0.19539785
H   -4.54379766   0.34707598  -0.13617585
H   -4.25189959   1.91304941   0.64950988
H   -3.16704174   0.53077153   0.97088259
O    1.70307542   3.30294854   0.59625300
H    1.91970977   2.59195501   1.21752671
C    2.68911872   3.29862240  -0.42366547
H    2.42990597   4.10535638  -1.11466058
H    2.70894722   2.35553820  -0.99197555
H    3.70181880   3.49261044  -0.03690388
O    1.92533463   1.01999928   2.22861503
H    1.16733498   0.59833708   1.79726739
C    2.20290159   0.29514345   3.41608057
H    3.05912955   0.78341948   3.88930927
H    2.47360072  -0.75421817   3.22027582
H    1.36405384   0.31030761   4.12944011
O   -2.70617398  -1.17495736  -2.15348735
H   -2.80460205  -0.27413451  -1.81106452
C   -3.08887038  -1.16040582  -3.51945422
H   -2.97198601  -2.18265450  -3.88936082
H   -2.45408826  -0.50106879  -4.13191131
H   -4.13943754  -0.86323599  -3.66359321
O   -1.01985310   3.19355546  -0.04036031
H   -0.06256954   3.25185402   0.09614149
C   -1.50928062   4.51211939  -0.22578855
H   -2.58872652   4.42802313  -0.37813540
H   -1.07710384   5.00565715  -1.11033422
H   -1.33737485   5.15666572   0.65044530
O   -1.34459562  -0.31864490   3.88100322
H   -1.39199431   0.53537387   3.42621912
C   -2.64877428  -0.87688484   3.88546862
H   -2.57724059  -1.83823228   4.40139424
H   -3.03566628  -1.06177813   2.87111839
H   -3.37678723  -0.25239790   4.42656986
O   -0.18927388   1.00864527  -4.15723903
H    0.72538773   0.97499491  -3.83992991
C   -0.77328411   2.20256668  -3.66123753
H   -1.80308450   2.22449032  -4.02800139
H   -0.26243692   3.10832642  -4.02374517
H   -0.80199446   2.23666837  -2.56087844
O   -1.62197614   2.22101553   2.63195288
H   -1.42083146   2.41554225   1.70452447
C   -0.80716509   3.06052655   3.43434803
H   -1.04647232   2.82839160   4.47565999
H   -1.00645754   4.13086373   3.26870329
H    0.26855742   2.87985365   3.28283656
O   -2.26622705  -2.04073658   0.51843329
H   -2.54546703  -1.93119188  -0.40267922
C   -2.01963430  -3.42133309   0.73215989
H   -1.70617311  -3.52682293   1.77432071
H   -1.21393737  -3.81348847   0.09196933
H   -2.91674092  -4.04192360   0.58101596
O   -0.19155882  -0.09266339   0.78782234
H   -0.86939439  -0.78399110   0.81988812
C    0.27580803  -0.00978513  -0.54905207
H    1.03849975   0.77344922  -0.56723157
H   -0.51728852   0.26944227  -1.26025334
H    0.73983878  -0.94626160  -0.89613222
O    0.31150637  -2.59371897   3.47727382
H   -0.25716756  -1.81227549   3.54345026
C    0.51181465  -3.09270286   4.79006681
H    1.15429036  -3.97251499   4.69711107
H   -0.42677920  -3.40499610   5.27410386
H    1.01768895  -2.36852193   5.44766129
O    3.51714924  -1.14995716  -1.48027452
H    3.10175239  -2.00063640  -1.27481514
C    4.05205615  -0.62960807  -0.27377329
H    4.51607206   0.32846631  -0.52330872
H    4.82565814  -1.27992259   0.16372907
H    3.27975116  -0.44633307   0.48959595
O    1.97803043  -3.42582755  -0.85828450
H    1.12943194  -3.37428888  -1.32266327
C    1.70504481  -3.47536335   0.53295913
H    2.67155965  -3.53316338   1.04088966
H    1.11541760  -4.36028492   0.81936948
H    1.18184995  -2.57685612   0.89590434
O    2.46123222   0.78927892  -3.19379508
H    2.85683799   0.13854088  -2.59508034
C    3.23590169   0.80766771  -4.38210599
H    2.77651040   1.54572809  -5.04521361
H    3.23976493  -0.16299719  -4.90227141
H    4.27959844   1.11097427  -4.20468119
O   -0.37780853  -2.88061756  -2.40975003
H   -1.15833534  -2.30963132  -2.35339498
C    0.34940081  -2.50250336  -3.56764899
H    1.22506563  -3.15547776  -3.61582323
H    0.70261715  -1.46023719  -3.52645693
H   -0.22833645  -2.63719260  -4.49547214
