90
Energy:   -537.61741410
O   -3.14441285   2.86559242  -0.06406188
H   -2.19814607   3.00776673  -0.21502188
C   -3.37158493   1.46539552  -0.04468988
H   -4.44210208   1.32315182   0.12632173
H   -2.82592800   0.95723855   0.76574972
H   -3.11051184   0.97901389  -0.99760703
O    2.26132595   3.16802344   0.33839108
H    2.88658124   2.43083611   0.27487779
C    2.32121358   3.67023679   1.66380762
H    1.61099956   4.49979306   1.71782267
H    3.31817399   4.05665289   1.92749280
H    2.02882286   2.92097861   2.41606899
O    2.30602124  -0.97590421   1.84636732
H    1.37388741  -0.81250529   1.63936351
C    2.54312031  -0.50613288   3.16380146
H    3.59746743  -0.69791704   3.38072587
H    1.93806623  -1.03273168   3.91837459
H    2.36437244   0.57550013   3.26818801
O   -2.64014053  -1.48109571  -2.48843532
H   -2.21005930  -0.74520766  -2.94878539
C   -3.90813582  -1.68385988  -3.09143484
H   -4.37883126  -2.51601902  -2.56092360
H   -3.83413911  -1.95585234  -4.15601077
H   -4.56678883  -0.80580951  -3.00209786
O   -0.40078782   3.49556471  -0.51494125
H    0.51609140   3.36758602  -0.22967432
C   -0.48942627   4.77717233  -1.11673764
H   -1.52848718   4.90492463  -1.43220077
H    0.15193719   4.87435572  -2.00667338
H   -0.24172733   5.59255434  -0.41918855
O   -0.86174641  -1.02540053   4.08587781
H   -0.61983295  -0.11277670   3.86903942
C   -2.27141656  -1.13587175   3.97116091
H   -2.52669277  -2.16980735   4.21874207
H   -2.63251422  -0.92990309   2.95137529
H   -2.80800631  -0.47507242   4.66986902
O   -1.39464212   0.70260323  -3.69339303
H   -0.44323522   0.86173894  -3.78240999
C   -2.03407288   1.96453106  -3.58756186
H   -3.10480898   1.76679864  -3.48800639
H   -1.88447647   2.59316682  -4.47931033
H   -1.70826586   2.53346119  -2.70271972
O   -0.25807004   1.52913382   2.98718361
H   -0.25341327   1.08444895   2.12656932
C   -1.17409695   2.60951982   2.90847795
H   -1.16690873   3.09933848   3.88598049
H   -2.20379473   2.27962271   2.69950976
H   -0.88769060   3.35552770   2.15070425
O   -2.57305903  -1.84930795   0.27602554
H   -2.66103398  -1.79752672  -0.68730326
C   -2.72712534  -3.20911020   0.64983723
H   -2.62521361  -3.24934619   1.73771602
H   -1.95591053  -3.86093718   0.21037547
H   -3.71642781  -3.61361716   0.38444683
O   -0.27625914  -0.33163851   0.86520405
H   -1.04994636  -0.90267479   0.74794824
C    0.11577229   0.13075467  -0.41738618
H    0.98824053   0.77234236  -0.26688830
H   -0.66631013   0.72836819  -0.91133201
H    0.40674585  -0.68799500  -1.09396633
O   -0.16900521  -3.52964415   2.90143253
H   -0.38860930  -2.67137018   3.29330384
C    0.91757755  -4.07218398   3.63459160
H    1.15194094  -5.03857301   3.18000250
H    0.67197513  -4.24398343   4.69428105
H    1.82037642  -3.44350556   3.58464203
O    3.80439380   0.82291026   0.25624551
H    3.39388524   0.15630964   0.82681506
C    4.54470566   0.13835146  -0.74167803
H    5.00037885   0.90397972  -1.37544495
H    3.91167374  -0.49940627  -1.37832000
H    5.35192720  -0.48202282  -0.32178940
O    2.35008201  -2.75663466  -0.39330858
H    2.48892917  -2.25890580   0.42608798
C    1.28652817  -3.66809454  -0.16830214
H    1.14347598  -4.22039548  -1.10103198
H    0.33920923  -3.16364346   0.07846345
H    1.51077636  -4.39506115   0.62794507
O    1.38862301   0.97129970  -3.74195475
H    1.75065451   0.09529586  -3.54202041
C    2.20994645   1.93330308  -3.09968450
H    1.78801247   2.91409699  -3.33526938
H    3.25011282   1.91346097  -3.46084589
H    2.22023849   1.82027558  -2.00428677
O    2.05419361  -1.66971745  -2.98890073
H    2.21011972  -2.12099132  -2.14601153
C    0.98028210  -2.33068893  -3.63879652
H    0.81799360  -1.80968604  -4.58626875
H    0.04343951  -2.28894509  -3.06142252
H    1.20350354  -3.38550346  -3.86310844
