90
Energy:   -537.53669937
O   -3.11473564   2.28322843  -1.36701092
H   -2.31609190   2.75366323  -1.08543934
C   -3.64508062   1.61783313  -0.23188227
H   -4.54398075   1.09314917  -0.56680093
H   -3.93493991   2.31293990   0.57160109
H   -2.95091160   0.87256554   0.18702455
O    1.49099734   3.51930694   1.06243616
H    1.63399049   2.75349533   1.63820418
C    2.56252198   3.56572885   0.13388152
H    2.38569683   4.43396709  -0.50672791
H    2.60830021   2.67180189  -0.50766060
H    3.54186839   3.69452526   0.62077926
O    1.59433397   1.10623555   2.52765588
H    1.02167682   0.56702033   1.96220561
C    1.70747915   0.44727294   3.77885539
H    2.35566085   1.06802450   4.40336576
H    2.16774503  -0.54961823   3.69435309
H    0.73912546   0.34051707   4.29234507
O   -1.97186647  -1.24111232  -2.74496257
H   -1.37772547  -0.57048968  -3.11331705
C   -3.28874150  -0.93038968  -3.17137243
H   -3.94490947  -1.69549146  -2.74764130
H   -3.39803615  -0.95553507  -4.26690870
H   -3.63198969   0.05177068  -2.81037515
O   -0.80937294   3.70896493  -0.54526905
H   -0.01311800   3.67003300   0.00508142
C   -1.12379955   5.07690374  -0.75121342
H   -2.02292914   5.10245047  -1.37282306
H   -0.32669983   5.62131046  -1.28133670
H   -1.34274087   5.60895063   0.18781168
O   -1.85894106  -1.00982300   3.94699777
H   -1.90296648  -0.07339377   3.70289670
C   -3.09538882  -1.60641332   3.58949154
H   -3.02860451  -2.66073942   3.87130981
H   -3.29574382  -1.55419352   2.50786855
H   -3.95108154  -1.16394520   4.12314804
O   -0.04789017   0.51309906  -3.76154584
H    0.88173912   0.52363125  -3.48932951
C   -0.49996975   1.85718563  -3.80140965
H   -1.54854832   1.82693638  -4.10971659
H    0.05266588   2.47026706  -4.53045173
H   -0.44701735   2.35294534  -2.81947498
O   -1.83679760   1.54774526   2.76592625
H   -1.30570869   1.18733318   2.04034306
C   -1.46565755   2.90618567   2.93747358
H   -2.07327051   3.29660487   3.75836610
H   -1.66574979   3.51779395   2.04378698
H   -0.40552178   3.02616223   3.21041149
O   -2.38489558  -1.91946244  -0.01027487
H   -2.34162808  -1.71429924  -0.95603343
C   -1.87890522  -3.23263022   0.16888403
H   -1.93488447  -3.44752440   1.23947827
H   -0.82757100  -3.32964737  -0.14426347
H   -2.47159526  -3.99301825  -0.36338083
O   -0.42127587  -0.07702639   0.91075950
H   -1.05574706  -0.79461212   0.76605191
C    0.06949407   0.32593051  -0.35782411
H    0.78266705   1.13459869  -0.17637085
H   -0.72341190   0.71167106  -1.01758292
H    0.59792173  -0.48316622  -0.88593776
O    0.20913010  -2.62453143   2.91995274
H   -0.51834188  -2.07810694   3.25256072
C    0.61434064  -3.48756296   3.97043586
H    1.43419481  -4.09577207   3.57876506
H   -0.18889940  -4.16666944   4.29662163
H    0.98569827  -2.94035438   4.85102294
O    3.58633781   0.06927680  -0.12534457
H    3.14928834  -0.63995099   0.36903076
C    4.62017984   0.59121513   0.69397515
H    5.10196927   1.38878067   0.12191452
H    5.38556312  -0.16033404   0.94325334
H    4.24089869   1.02535178   1.63229732
O    2.36905399  -2.11161271   1.17569825
H    1.59770592  -2.25087539   1.74495332
C    2.27432334  -3.02228876   0.09207977
H    3.15076488  -2.85188606  -0.53902905
H    1.37469578  -2.86032549  -0.52209894
H    2.28772687  -4.07409007   0.41813449
O    2.60031893   0.36328508  -2.74701066
H    2.97926020   0.35819484  -1.85549461
C    2.93574969  -0.86916996  -3.36432302
H    2.50124573  -0.84661487  -4.36740964
H    2.51985221  -1.73866691  -2.83161139
H    4.02297955  -1.01163139  -3.46636857
O    0.08292616  -3.21175897  -2.80944228
H   -0.66311460  -2.59699071  -2.74694075
C    0.28755865  -3.50203776  -4.18290416
H    1.13121136  -4.19558597  -4.23511715
H    0.54350320  -2.60809297  -4.77293165
H   -0.58356417  -3.98841191  -4.64912573
