90
Energy:   -539.27114978
O   -0.50579106  -0.33191476   1.36569653
H   -1.27178491   0.24832072   1.24320781
C    0.42790223  -0.03446289   0.33989294
H    1.28426706  -0.69683302   0.49283179
H    0.78870471   1.00517799   0.38167517
H    0.02646636  -0.22270970  -0.66816941
O    0.70206511  -0.94390012   3.83889483
H    0.30533892  -0.67364896   2.99746990
C    1.94288068  -0.26814695   3.96644141
H    2.37610241  -0.58396737   4.91936407
H    1.83026839   0.82711098   3.98893276
H    2.65292677  -0.52808532   3.16578921
O    3.29960333   1.90731878   1.44721309
H    2.52340226   2.34371454   1.82864974
C    3.64936023   2.60791925   0.26426641
H    4.52525618   2.10325713  -0.15239608
H    3.91959892   3.65811773   0.45618188
H    2.85084843   2.58755736  -0.49385076
O   -3.13152790   0.17987275  -2.46101385
H   -3.01720045  -0.67063999  -2.01159135
C   -1.93271031   0.45846111  -3.16653401
H   -2.07874518   1.41963814  -3.66683166
H   -1.70707198  -0.29619675  -3.93618080
H   -1.05931557   0.54879344  -2.50185437
O    1.26034567   2.17462238  -2.65281003
H    1.41938714   1.23027936  -2.79891051
C    1.57675537   2.85565482  -3.85639363
H    1.39200308   3.91781002  -3.67424501
H    0.94626181   2.53961574  -4.70219177
H    2.63245412   2.73767642  -4.14683911
O   -2.95629176   1.05100443   1.20989091
H   -3.47924873   1.53168498   0.55119106
C   -3.79221929   0.05758376   1.78162014
H   -3.18750456  -0.47425871   2.52118006
H   -4.14891205  -0.67557588   1.04133333
H   -4.66666281   0.48340831   2.29814633
O    0.15129695   3.58054361  -0.49503825
H    0.56582262   3.17560885  -1.27132401
C   -1.25427159   3.46359105  -0.64746185
H   -1.70544506   3.92461197   0.23536736
H   -1.59111233   2.41620731  -0.69545095
H   -1.63076344   3.99082947  -1.53799589
O    0.89559749   3.17809384   2.19533090
H    0.56331827   3.41459022   1.31664821
C   -0.22637897   2.93302535   3.02818386
H    0.16589221   2.66803921   4.01377549
H   -0.84625948   2.09576675   2.67107951
H   -0.87131951   3.81811675   3.14412453
O   -2.80650739  -2.28596228  -1.09642999
H   -2.52447267  -2.54686242  -0.20715455
C   -3.81417709  -3.19390152  -1.51210037
H   -4.12044708  -2.88552933  -2.51539020
H   -4.70248875  -3.17024446  -0.86162356
H   -3.45314276  -4.23271290  -1.56956745
O   -1.68406620  -2.86357372   1.40989478
H   -1.16807405  -2.04399987   1.43166813
C   -1.63644548  -3.43676146   2.70670697
H   -2.22252533  -4.35882507   2.66434743
H   -2.07989097  -2.78543625   3.47606313
H   -0.61302508  -3.69682145   3.01936783
O    2.96971052  -3.22329316   0.54439058
H    3.41218126  -2.36753348   0.64596954
C    2.23152291  -3.46964968   1.73052770
H    1.73955732  -4.43721860   1.59912959
H    1.45265712  -2.71246047   1.91166279
H    2.87145029  -3.53068561   2.62470045
O    4.16165385  -0.69554293   0.89864955
H    3.88425951   0.21332168   1.08690676
C    5.43309048  -0.89021039   1.49705347
H    5.73050443  -1.91873454   1.27531439
H    5.41093035  -0.76965689   2.59147255
H    6.20282835  -0.21670607   1.08879757
O   -0.30831690  -2.56933481  -2.42629198
H   -1.21293239  -2.48762605  -2.08951645
C    0.36252835  -3.53195195  -1.62887823
H    1.37974842  -3.61155062  -2.02183190
H   -0.10336706  -4.52832886  -1.68320905
H    0.42774489  -3.23612119  -0.57010144
O    1.59911373  -0.57203153  -2.99768955
H    0.99900781  -1.32459126  -2.88837349
C    2.86155701  -0.94818056  -2.47111321
H    3.52523372  -0.08922428  -2.60230974
H    3.30471474  -1.80602926  -3.00072078
H    2.82022947  -1.18670549  -1.39678774
O   -4.36483417   2.17816844  -0.96285433
H   -4.01231842   1.52653987  -1.58698262
C   -5.21368329   3.05342837  -1.68805016
H   -5.60208160   3.78083284  -0.97005665
H   -6.07041824   2.53349530  -2.14461578
H   -4.68059939   3.60492780  -2.47826992
