90
Energy:   -536.57340462
O   -1.45882265   2.11345090   0.63468184
H   -1.15548721   2.78852507   0.00963324
C   -2.07837710   1.08039401  -0.11463752
H   -2.41409851   0.32853715   0.60472859
H   -1.38691316   0.59330206  -0.81990087
H   -2.95778475   1.43162280  -0.67682775
O    2.51333606   3.36380487  -0.58551643
H    3.08790120   2.63979685  -0.87553464
C    2.75732382   3.58029590   0.79511219
H    2.10211502   4.39878936   1.10536222
H    3.79717182   3.87842005   1.00154731
H    2.51925646   2.69978307   1.41220085
O    2.19863742   0.96240233   3.69390570
H    1.26123949   1.19211033   3.61058322
C    2.28314145  -0.23193471   4.45479457
H    3.34553864  -0.47629467   4.53897065
H    1.77482663  -1.08092378   3.97146141
H    1.87750067  -0.11755637   5.47221802
O   -3.48593261  -1.13691702  -2.41300853
H   -3.23635265  -0.31183999  -2.85502777
C   -4.68158205  -1.60412189  -3.01689247
H   -4.94847036  -2.53387221  -2.50716688
H   -4.55830977  -1.82559248  -4.08858835
H   -5.51969883  -0.89905270  -2.90193581
O   -0.18436540   4.02351868  -0.99987903
H    0.75890390   3.84056262  -0.87661757
C   -0.30035202   5.31129234  -1.58359117
H   -1.36898208   5.50133662  -1.71549325
H    0.18227319   5.37547614  -2.57138198
H    0.11142147   6.10705969  -0.94329886
O   -0.99453467  -1.22660695   3.64785618
H   -0.85653720  -0.27143405   3.56404271
C   -2.38391975  -1.47495974   3.50480459
H   -2.52157172  -2.55529317   3.60184485
H   -2.77156973  -1.16846522   2.52064711
H   -2.98635764  -0.98268464   4.28423460
O   -2.61146316   1.24645327  -3.61829331
H   -1.66502537   1.05106474  -3.68539115
C   -2.75333575   2.65313696  -3.50147318
H   -3.82520827   2.85566783  -3.42693618
H   -2.36385506   3.19407282  -4.37809768
H   -2.26623786   3.05623631  -2.59979481
O   -0.53484492   1.51896208   3.18897445
H   -0.87966988   1.74377056   2.31205931
C   -0.97335873   2.51998000   4.09351995
H   -0.57615880   2.25128923   5.07613008
H   -2.07065317   2.57162227   4.17133584
H   -0.59581575   3.52166855   3.83494948
O   -3.26277371  -2.31677101   0.13725125
H   -3.37624402  -1.91741388  -0.73799823
C   -2.00271255  -2.96833213   0.15299158
H   -1.89112773  -3.41256154   1.14581294
H   -1.16294298  -2.27402117  -0.00668527
H   -1.93230124  -3.77603823  -0.59228048
O    2.72397080  -0.07699320   1.10197092
H    2.68978056   0.24247464   2.01586074
C    1.39207358  -0.13856810   0.61741741
H    1.44899869  -0.50018980  -0.41286142
H    0.89742820   0.84529962   0.60704423
H    0.76302527  -0.83772707   1.19035047
O    0.54769677  -3.25553759   2.46694014
H    0.00935637  -2.58117292   2.90721868
C    0.36762645  -4.47547361   3.16827072
H    0.98086534  -5.22398113   2.65919336
H   -0.67709691  -4.82353661   3.15475836
H    0.70076044  -4.41665326   4.21628753
O    3.91141389   0.95715135  -1.21371307
H    3.58227540   0.53321108  -0.40726048
C    4.20649923  -0.06778659  -2.14910638
H    4.57591376   0.42715970  -3.05135151
H    3.32019266  -0.66094996  -2.42368825
H    4.98867832  -0.75630474  -1.79285374
O    1.40805492  -3.48380236  -0.21157570
H    1.13245239  -3.43207468   0.71567333
C    2.82632888  -3.50096307  -0.23874668
H    3.11971069  -3.55941833  -1.29040979
H    3.25112814  -4.37272026   0.28313676
H    3.27091722  -2.58897935   0.18951051
O    0.07231709   0.51048780  -3.54180069
H    0.40390201  -0.35089849  -3.24771161
C    0.93723619   1.50600625  -3.01893195
H    0.54925258   2.46975915  -3.35971674
H    1.97119050   1.40568355  -3.38451529
H    0.95742059   1.51616141  -1.91790207
O    0.80313569  -2.05714875  -2.57893019
H    1.00676557  -2.55993252  -1.77633027
C   -0.21935044  -2.75230175  -3.27450059
H   -0.43646258  -2.17239166  -4.17563977
H   -1.14922479  -2.83667599  -2.69055537
H    0.08892813  -3.76293067  -3.58493714
