90
Energy:   -537.56205392
O   -3.22418575   2.78342869  -0.06293897
H   -2.28401486   2.96799318  -0.20590027
C   -3.39634874   1.37566391  -0.09598426
H   -4.46069859   1.18542843   0.06666589
H   -2.83228591   0.85955172   0.69663082
H   -3.11514459   0.93550757  -1.06550164
O    2.20005455   3.27589571   0.27231640
H    2.89989204   2.62966492   0.09614457
C    2.21240694   3.55534536   1.66310362
H    1.41822104   4.28473760   1.84404814
H    3.16382331   3.99599597   1.99986951
H    2.00494381   2.66528702   2.27754037
O    2.43235064  -0.56755420   1.69580916
H    1.49473362  -0.46728988   1.47389777
C    2.53038494  -0.68857668   3.10587179
H    3.59284650  -0.80068630   3.33844882
H    2.00070592  -1.57234823   3.49467162
H    2.15692961   0.20148777   3.63605452
O   -2.62180675  -1.47258362  -2.54829021
H   -2.20284326  -0.73183106  -3.01108445
C   -3.91461271  -1.65163552  -3.10428208
H   -4.37235646  -2.48963665  -2.57163777
H   -3.88547369  -1.90333387  -4.17599855
H   -4.56033069  -0.76941101  -2.97197359
O   -0.50491741   3.55066953  -0.47908304
H    0.42440814   3.44233871  -0.22800194
C   -0.66433867   4.86778443  -0.98140461
H   -1.71655716   4.97276132  -1.25943572
H   -0.05374337   5.05776922  -1.87798506
H   -0.43063266   5.63996917  -0.23181167
O   -0.94469442  -1.04709632   4.06214768
H   -0.70358326  -0.13062899   3.86120910
C   -2.33649116  -1.18763654   3.82617296
H   -2.59110045  -2.22552348   4.05736552
H   -2.61168957  -0.99407371   2.77756598
H   -2.94522317  -0.53496018   4.47133669
O   -1.40505413   0.73279725  -3.74503940
H   -0.45065723   0.86038993  -3.85119940
C   -1.99841915   2.01443697  -3.61143038
H   -3.07317482   1.85222409  -3.49280305
H   -1.84476581   2.64874131  -4.49846250
H   -1.63590900   2.56072173  -2.72659329
O   -0.35244410   1.51460589   2.99385195
H   -0.30390935   1.10040390   2.11949255
C   -1.29426187   2.57273460   2.91719231
H   -1.33650533   3.02827120   3.91026184
H   -2.30612714   2.22347411   2.65849728
H   -1.00074164   3.35189195   2.19640314
O   -2.38754457  -1.94055775   0.19105120
H   -2.53390509  -1.85463561  -0.76268842
C   -2.42806147  -3.32228838   0.50997540
H   -2.26145293  -3.40096122   1.58772184
H   -1.64120457  -3.89970407  -0.00014681
H   -3.40148768  -3.78331597   0.28047093
O   -0.22449257  -0.24529247   0.78928770
H   -0.94971575  -0.87704889   0.67370897
C    0.13718938   0.23462091  -0.49578160
H    0.95508476   0.94486159  -0.34715276
H   -0.68691595   0.76354168  -0.99963730
H    0.49621800  -0.56479859  -1.16271806
O    0.03599076  -3.49698825   3.02946051
H   -0.30402056  -2.65352966   3.36321670
C    0.41509540  -4.28150923   4.14898732
H    0.79570205  -5.22779454   3.75507376
H   -0.43100396  -4.50558748   4.81733015
H    1.21428945  -3.81372838   4.74501355
O    3.94780091   1.08619642  -0.01050970
H    3.54388692   0.47795866   0.62614058
C    4.69314027   0.30956166  -0.93454513
H    5.14126299   1.01022653  -1.64429154
H    4.06515996  -0.39559216  -1.50126917
H    5.50633166  -0.25742003  -0.45493189
O    2.57408596  -2.57477105  -0.32465171
H    2.69358569  -1.96784925   0.42086088
C    1.60490392  -3.53833057   0.05583878
H    1.48251797  -4.21380969  -0.79518110
H    0.62429841  -3.08978442   0.27943776
H    1.91922973  -4.13744317   0.92476957
O    1.38358093   0.92589855  -3.80860336
H    1.76657543   0.06646148  -3.57815506
C    2.19768842   1.93037938  -3.22483885
H    1.75206861   2.89179872  -3.49424754
H    3.23104442   1.91451077  -3.60523457
H    2.23087937   1.86544456  -2.12599438
O    2.12131771  -1.67061499  -2.96336801
H    2.33253289  -2.06740325  -2.10524768
C    1.03131719  -2.39212428  -3.51460025
H    0.80651818  -1.93211515  -4.48069662
H    0.12544756  -2.33625660  -2.89085644
H    1.26840208  -3.45337278  -3.68872580
