90
Energy:   -540.57670428
O   -3.32355720   2.91829115   0.18555530
H   -2.42893160   3.27109089   0.30217714
C   -3.69040615   2.26794288   1.39179025
H   -4.70043084   1.87651979   1.24305125
H   -3.71314829   2.95254564   2.25410063
H   -3.02916856   1.42211453   1.63697709
O    1.89248549   2.85368514   1.04501252
H    2.10415080   1.91012453   1.10258368
C    3.11630339   3.56390034   0.94304250
H    2.85949109   4.62477053   0.87911205
H    3.68932826   3.29644220   0.04144060
H    3.76480138   3.42199677   1.82172962
O    2.22542993   0.02425724   1.13571328
H    1.34245529  -0.30629306   0.91319235
C    2.57988158  -0.51237625   2.40019827
H    3.57685617  -0.13003609   2.63544890
H    2.62821296  -1.61257169   2.39682042
H    1.89514657  -0.19710386   3.20301744
O   -3.23256484  -0.87911614  -2.31112152
H   -2.77060412  -0.20497267  -2.83126204
C   -4.41240388  -0.28768302  -1.79081347
H   -4.92046922  -1.06060130  -1.20775931
H   -5.10108070   0.05267872  -2.57989867
H   -4.20295133   0.56193546  -1.12219145
O   -0.65510511   3.87416620   0.40578677
H    0.23379450   3.58001159   0.65428992
C   -0.51717596   4.83253843  -0.63105073
H   -1.52757663   5.15323051  -0.89887954
H   -0.04037274   4.41769134  -1.53290322
H    0.05079471   5.72168943  -0.31546057
O   -1.04616858  -2.07864807   3.88922158
H   -1.01566157  -1.11047812   3.87740912
C   -2.36722854  -2.47178885   3.55340218
H   -2.38385482  -3.56489713   3.57137646
H   -2.66580102  -2.14234935   2.54587976
H   -3.11565542  -2.10708689   4.27425377
O   -1.74899308   1.16933780  -3.58665132
H   -0.78726861   1.28506955  -3.59739777
C   -2.32787630   2.41115371  -3.21879100
H   -3.41114281   2.26294015  -3.21160675
H   -2.09817839   3.21602400  -3.93447251
H   -2.02189873   2.74190842  -2.21392465
O   -0.90090351   0.66792699   3.27833753
H   -0.74019993   0.44403721   2.34964436
C   -0.44320492   1.99443450   3.48672083
H   -0.63176665   2.23039377   4.53755521
H   -0.98045717   2.73152645   2.86960430
H    0.63639462   2.10600602   3.30018947
O   -2.43054105  -2.41910965  -0.08960334
H   -2.77190077  -1.97973018  -0.88259924
C   -1.85702544  -3.65207772  -0.49383514
H   -1.47753583  -4.13379961   0.41138133
H   -1.01376870  -3.52090954  -1.18988851
H   -2.58981424  -4.32954305  -0.95949450
O   -0.53373828  -0.47847053   0.71784434
H   -1.10461430  -1.24130334   0.54288735
C   -0.70871333   0.44314856  -0.34636229
H   -0.05862971   1.29609134  -0.13337142
H   -1.74317230   0.81305278  -0.42280076
H   -0.41579966   0.02606395  -1.32258938
O    0.64375466  -3.49279980   2.14696764
H    0.05597926  -3.00219390   2.74047351
C    0.80676581  -4.79604883   2.68316080
H    1.47142135  -5.33493405   2.00248397
H   -0.14183106  -5.35198875   2.74538714
H    1.27215015  -4.79009165   3.68123859
O    4.43495207   0.72012753  -0.49608197
H    3.71406731   0.38206041   0.05569612
C    4.68663519  -0.23901935  -1.51059005
H    5.50110594   0.15760171  -2.12281086
H    3.81654823  -0.40386543  -2.16522871
H    5.00635209  -1.21207088  -1.10595545
O    1.58998148  -3.01620841  -0.45738265
H    1.22435532  -3.14241166   0.43076910
C    2.95398746  -3.40435809  -0.42048727
H    3.35024666  -3.25588646  -1.42866386
H    3.08736289  -4.46452428  -0.15396152
H    3.55127503  -2.79355663   0.27445623
O    1.05359707   1.32648883  -3.32334518
H    1.27609304   0.39436213  -3.18171666
C    1.99131259   2.10754269  -2.60003456
H    1.72610739   3.15447578  -2.77057051
H    3.02622308   1.95696989  -2.94509316
H    1.95560507   1.91860183  -1.51568976
O    1.36002880  -1.42349730  -2.76604248
H    1.42907513  -1.96417777  -1.96521759
C    0.27419905  -1.92293544  -3.53028660
H    0.21064439  -1.30269338  -4.42847688
H   -0.68766784  -1.85327647  -2.99855636
H    0.42160647  -2.96748467  -3.84645948
