90
Energy:   -536.37112588
O   -2.99763972   3.21847270  -0.15459044
H   -2.03641016   3.31844685  -0.08776096
C   -3.28876109   1.83024873  -0.12976386
H   -4.37538395   1.73572125  -0.20592489
H   -2.96863748   1.34528966   0.80571084
H   -2.83869564   1.28619625  -0.97488238
O    2.41614015   2.91955589   0.76258034
H    2.90964608   2.10189360   0.60039669
C    2.28489454   3.07173555   2.16691282
H    1.72676223   3.99736236   2.33180230
H    3.25640642   3.16335763   2.67735125
H    1.72368711   2.24698997   2.63340856
O    2.43521628  -1.69044106   1.91485759
H    1.69096663  -2.20400511   1.56734110
C    1.97868553  -0.99419747   3.06349082
H    2.82930779  -0.42100017   3.44213555
H    1.63934731  -1.67041934   3.86371009
H    1.16471164  -0.28784533   2.83701676
O   -2.86004669  -0.99379224  -2.45273262
H   -2.39875978  -0.25828248  -2.88245701
C   -4.12557673  -1.13265049  -3.07858076
H   -4.63171091  -1.96525051  -2.58250556
H   -4.04587130  -1.37155728  -4.15065722
H   -4.75520200  -0.23588665  -2.96829039
O   -0.18215854   3.69279399  -0.08704973
H    0.70251183   3.41945165   0.19767046
C   -0.04436568   4.89797437  -0.82263600
H   -1.04996609   5.19169310  -1.13565727
H    0.57265062   4.77621673  -1.72665110
H    0.37884572   5.71744327  -0.22085517
O   -1.51543492  -1.39117092   3.84938966
H   -1.30841289  -0.46945197   3.63491515
C   -1.91423704  -1.43736414   5.21003540
H   -2.14368927  -2.48249398   5.43484755
H   -2.81719799  -0.83917420   5.40905209
H   -1.11991426  -1.10674904   5.89743799
O   -1.47844545   1.13591655  -3.65240446
H   -0.51532061   1.19445455  -3.73835288
C   -1.97706453   2.45416152  -3.49071650
H   -3.06301265   2.36979794  -3.39540299
H   -1.75944854   3.10018354  -4.35563046
H   -1.59197999   2.94621414  -2.58386952
O   -0.89864672   1.31493864   3.14926321
H   -0.79561000   1.01182979   2.23497019
C   -1.44102315   2.62520754   3.10980435
H   -1.55054154   2.95126782   4.14767506
H   -2.43374577   2.66036976   2.63436481
H   -0.78324573   3.34237494   2.59426858
O   -2.07733056  -2.40682024  -0.16636165
H   -2.42150312  -2.01716690  -0.98375923
C   -3.11596933  -2.36879093   0.79920401
H   -2.71133892  -2.81139941   1.71345625
H   -3.99840126  -2.95468503   0.49784157
H   -3.44276314  -1.34323730   1.03206213
O   -0.66761352  -0.11119580   0.76112659
H   -1.13389373  -0.93399563   0.55134939
C    0.20094213   0.17955525  -0.32220563
H    0.71814638   1.10912432  -0.06944825
H   -0.33840218   0.33569938  -1.26957254
H    0.96073719  -0.60192008  -0.47963850
O    0.38814509  -3.38974398   0.79974329
H   -0.47893739  -3.12404860   0.45915964
C    0.17347580  -4.14533831   1.98106800
H    1.16016811  -4.43650210   2.35140179
H   -0.40736806  -5.06311138   1.79916048
H   -0.33025463  -3.56609113   2.77069176
O    3.61196459   0.39543963   0.41552309
H    3.25487370  -0.33470044   0.94259506
C    4.30266036  -0.16798423  -0.68811937
H    4.69840274   0.66808502  -1.27109568
H    3.64533460  -0.76039657  -1.34367089
H    5.14966617  -0.80139448  -0.38128072
O    2.49540268  -3.42515298  -1.08846781
H    1.80379085  -3.50737766  -0.41516590
C    3.70391184  -3.91014911  -0.52560181
H    4.47214312  -3.81025589  -1.29717634
H    3.64366347  -4.97183035  -0.23927958
H    4.02598413  -3.33081610   0.35384122
O    1.32425801   1.15022406  -3.64845384
H    1.56650491   0.22824793  -3.47611777
C    2.22947365   1.97432277  -2.93153003
H    1.94230203   3.00915324  -3.13681902
H    3.27386188   1.83951960  -3.25380112
H    2.17845502   1.81541371  -1.84298865
O    1.65264151  -1.58862466  -3.04346675
H    2.04043461  -2.24098106  -2.44141117
C    0.38796493  -2.08173403  -3.45574102
H   -0.03479667  -1.33487348  -4.13320477
H   -0.31111177  -2.21486642  -2.61529776
H    0.46075169  -3.03542853  -4.00158551
