90
Energy:   -536.89735565
O   -3.18019182   2.73207438  -0.61831214
H   -2.33624729   3.08201413  -0.29625149
C   -3.73315384   1.92711436   0.41067092
H   -4.68314317   1.54104117   0.03125957
H   -3.93890514   2.49563639   1.33111996
H   -3.09406214   1.06808692   0.66837421
O    1.77204601   3.12077955   1.36487372
H    1.85403158   2.24097038   1.76190955
C    2.67079142   3.18394082   0.26906300
H    2.56553630   4.18128987  -0.16648427
H    2.44033044   2.44378053  -0.51313124
H    3.72128397   3.05310235   0.57258240
O    1.72800658   0.46274659   2.26160894
H    0.99855347   0.03477788   1.78920633
C    1.85471762  -0.17224422   3.52385486
H    2.68061130   0.32196352   4.04264533
H    2.09705600  -1.24313311   3.43872887
H    0.95095198  -0.06876774   4.14456221
O   -3.26010179  -1.40439811  -2.54358433
H   -2.43730632  -1.44567261  -3.05321882
C   -3.82074982  -0.11537668  -2.73497747
H   -4.74663930  -0.08609767  -2.15415340
H   -4.07176350   0.08710067  -3.78796009
H   -3.16485073   0.69168649  -2.37273066
O   -0.71628464   3.80737241   0.25596976
H    0.15048634   3.61535740   0.64360564
C   -0.84511267   5.21733217   0.16680364
H   -1.82677487   5.41599093  -0.27178412
H   -0.08216127   5.67380316  -0.48305536
H   -0.80437147   5.71110968   1.15031838
O   -1.42228823  -1.72214601   3.97195752
H   -1.52940989  -0.76492302   3.86865038
C   -2.67274272  -2.32844940   3.68683729
H   -2.53418033  -3.40623533   3.80792884
H   -3.01069581  -2.14144735   2.65552974
H   -3.46844154  -2.00689200   4.37693987
O   -0.01275013   1.43281797  -3.70185555
H    0.91479149   1.57690413  -3.46242084
C   -0.74224045   2.58491706  -3.31064546
H   -1.78467347   2.40575480  -3.58762828
H   -0.40412752   3.49758676  -3.82590364
H   -0.70353266   2.76432821  -2.22478604
O   -1.61676351   0.98202978   3.18213096
H   -1.29094053   0.71994412   2.30830387
C   -1.23304154   2.33063604   3.39789092
H   -1.60793632   2.60963050   4.38637521
H   -1.67071327   3.02061546   2.65954872
H   -0.14029604   2.46731649   3.39614391
O   -2.56566160  -2.22934801   0.04594416
H   -2.94875353  -1.93827995  -0.79485500
C   -1.80303363  -3.39783433  -0.21012632
H   -1.37877048  -3.71216381   0.74730930
H   -0.97151119  -3.21815039  -0.90945560
H   -2.41338989  -4.22667170  -0.60162495
O   -0.64887575  -0.30852838   0.86232737
H   -1.23782771  -1.05326602   0.67016933
C   -0.30642742   0.29925715  -0.37292955
H    0.35711999   1.13594245  -0.13809397
H   -1.18249062   0.69808020  -0.90793495
H    0.23174666  -0.38409819  -1.04833422
O    0.49094429  -3.24191372   2.57109943
H   -0.18540547  -2.71652654   3.02380526
C    0.90820959  -4.26503741   3.46084174
H    1.66989768  -4.84719848   2.93509946
H    0.08924355  -4.94668635   3.73909820
H    1.35874691  -3.86810347   4.38400852
O    3.15627253  -0.67687144  -1.14926903
H    2.63473615  -1.36709439  -0.71336152
C    4.20070712  -0.30339937  -0.26484336
H    4.77820901   0.47462513  -0.77145430
H    4.88119290  -1.13790904  -0.03395366
H    3.82638030   0.11236525   0.68373270
O    1.70681787  -2.74262673   0.07192622
H    1.27063827  -2.86751947   0.92783067
C    2.11117090  -4.01955550  -0.39549794
H    2.60054387  -3.86047004  -1.36022127
H    1.26234188  -4.70350466  -0.55195933
H    2.83287241  -4.50951650   0.27670923
O    2.68786876   1.41462116  -2.94026453
H    2.88737670   0.69847525  -2.31917283
C    3.40353504   1.15757084  -4.13787911
H    3.16743466   1.97359141  -4.82624837
H    3.10652650   0.21097194  -4.61591026
H    4.49427978   1.14325555  -3.98672250
O   -0.71554042  -1.28511599  -3.72947603
H   -0.48369988  -0.34692250  -3.79630571
C    0.49118184  -2.01778353  -3.58964240
H    0.21171201  -3.07225863  -3.51572298
H    1.04945569  -1.74796891  -2.67952828
H    1.16162396  -1.90220270  -4.45562494
