90
Energy:   -536.27245597
O   -3.17706388   2.85014495   0.07976254
H   -2.23627420   3.00998047  -0.08694275
C   -3.35646772   1.45057935   0.22661005
H   -4.42142105   1.28828910   0.41375029
H   -2.79334001   1.03665790   1.07768793
H   -3.07959357   0.88899774  -0.67933925
O    2.29848714   3.19120270   0.10144783
H    2.89605118   2.43452998   0.00770938
C    2.31460646   3.58619611   1.46389201
H    1.63640613   4.43931980   1.55169563
H    3.31240084   3.90710377   1.80182985
H    1.95659590   2.79444058   2.14044870
O    2.28631491  -0.35774505   2.23458416
H    1.35885823  -0.21874041   1.99183924
C    2.43152117  -0.00320864   3.60050980
H    3.48181282  -0.16574676   3.85732495
H    1.81634198  -0.62556404   4.26909462
H    2.19274857   1.05448128   3.79301173
O   -3.18780702  -1.40757269  -2.11820950
H   -2.78051947  -0.70755781  -2.64973493
C   -4.58088939  -1.39603660  -2.38601954
H   -5.02402066  -2.19041265  -1.77931815
H   -4.81256656  -1.60373736  -3.44241123
H   -5.05993664  -0.44486329  -2.10573324
O   -0.45672472   3.51959369  -0.47994095
H    0.48600380   3.39031133  -0.29835824
C   -0.59588888   4.74480817  -1.18137988
H   -1.66358984   4.87480737  -1.37784891
H   -0.06854628   4.74358690  -2.14817129
H   -0.24833035   5.61116809  -0.59708468
O   -0.84706389  -0.71752630   4.50046263
H   -0.71627908   0.18342499   4.16939559
C   -2.13840139  -1.14203549   4.09454001
H   -2.26920497  -2.15845210   4.47568682
H   -2.25188616  -1.17082384   2.99951956
H   -2.94248645  -0.51521306   4.51085502
O   -1.91566708   0.66613499  -3.49137618
H   -0.96514498   0.77720886  -3.64168787
C   -2.48856306   1.95953646  -3.38443407
H   -3.55920116   1.81590527  -3.21535028
H   -2.36485804   2.55657113  -4.30150767
H   -2.08344946   2.53537547  -2.53763436
O   -0.43959174   1.75694009   3.11796226
H   -0.47044967   1.29481897   2.26713024
C   -1.24385463   2.92013750   3.00541551
H   -1.19789400   3.42861141   3.97228008
H   -2.29898234   2.68850667   2.79133607
H   -0.87797538   3.61723216   2.23537087
O   -2.28193902  -2.08499459   0.44394591
H   -2.67437666  -1.91305692  -0.42487709
C   -1.54105380  -3.29118391   0.35051053
H   -1.10589121  -3.46983777   1.33752701
H   -0.71851318  -3.22956601  -0.37915206
H   -2.16998694  -4.15767221   0.09279276
O   -0.31026318  -0.16484060   1.04902878
H   -0.96689264  -0.87035561   0.95151156
C    0.14625323   0.18068650  -0.24894563
H    0.88503276   0.97644144  -0.12063321
H   -0.65916804   0.56356363  -0.89507179
H    0.63598365  -0.65979558  -0.76521235
O    1.89585504  -3.15182364   2.05546408
H    2.15265504  -2.22840890   2.19611350
C    1.16449201  -3.57362325   3.19551977
H    0.88309078  -4.61556320   3.02042071
H    0.24195747  -2.99187534   3.34808688
H    1.75896396  -3.53156835   4.12159310
O    3.70883600   0.73568814   0.06194652
H    3.34763065   0.30831439   0.85270922
C    4.04526661  -0.28547611  -0.86356513
H    4.45050047   0.21331434  -1.74814345
H    3.17272528  -0.88001624  -1.17656832
H    4.81382366  -0.97313572  -0.47727295
O    2.00743016  -3.38896032  -0.73913117
H    1.93643696  -3.37472304   0.22688153
C    2.96928497  -4.37249599  -1.08557983
H    3.03673642  -4.37525844  -2.17687625
H    2.68019462  -5.38366161  -0.75885640
H    3.96953541  -4.14971400  -0.68228766
O    0.87296826   0.80682122  -3.71207315
H    1.17540553  -0.09610328  -3.53407790
C    1.87354251   1.69627425  -3.24275635
H    1.51678213   2.70859942  -3.45109493
H    2.83774159   1.56143405  -3.75745586
H    2.04371507   1.61075898  -2.15808784
O    1.34197980  -1.90362664  -3.02691790
H    1.60295251  -2.43853344  -2.26259386
C    0.10541704  -2.40930845  -3.50413087
H   -0.17384015  -1.79553203  -4.36481613
H   -0.70046791  -2.33657761  -2.75711212
H    0.17498778  -3.45597474  -3.83943210
