90
Energy:   -537.90683515
O   -2.65845313   2.17473683   2.18608579
H   -2.44067542   2.59069660   1.33875255
C   -3.63299563   1.17444496   1.93665265
H   -3.86681228   0.71612658   2.90141129
H   -3.26792504   0.38376428   1.26261641
H   -4.56566779   1.58431087   1.51843033
O    0.99798199   3.33612768  -0.40181483
H    1.56517503   2.83202701  -1.00397581
C    1.77304703   3.67493252   0.73705269
H    1.11897183   4.24225943   1.40474349
H    2.63937792   4.30790202   0.48886377
H    2.13452923   2.79007491   1.28398501
O    2.87082544   0.30900466   2.01731677
H    2.07948148  -0.08685695   1.62299254
C    3.23821202  -0.48471994   3.13425998
H    4.13104869  -0.02477895   3.56644301
H    3.48838933  -1.52047276   2.85604293
H    2.45828166  -0.51235883   3.91125552
O   -2.89163042  -0.33061128  -2.00218404
H   -2.24852825   0.10070095  -2.58426020
C   -3.94589058   0.58950834  -1.76884057
H   -4.66118413   0.08762513  -1.11160881
H   -4.47318977   0.87520629  -2.69247988
H   -3.60529906   1.50761083  -1.26499281
O   -1.79321331   3.35692332  -0.20371357
H   -0.82955108   3.36185370  -0.30247631
C   -2.24083731   4.70078932  -0.28239452
H   -3.32808944   4.67689874  -0.16926961
H   -2.00864153   5.17031427  -1.25110953
H   -1.82811828   5.33405120   0.51849231
O   -0.61968417  -1.49183447   3.56401314
H   -0.71933640  -0.59861618   3.92547377
C   -1.91292934  -2.06886865   3.47985705
H   -1.78225897  -3.07443498   3.07089885
H   -2.58430491  -1.51163842   2.80789972
H   -2.40232283  -2.16075017   4.46211421
O   -0.95523276   0.92263864  -3.61900309
H   -0.08151414   0.68286307  -3.96185395
C   -0.96989139   2.32755852  -3.42274038
H   -1.96099062   2.58047382  -3.03642268
H   -0.81421589   2.88911463  -4.35719060
H   -0.22133977   2.66205181  -2.68751113
O   -0.94130676   1.20637357   4.18193107
H   -1.56962611   1.62734314   3.57660249
C    0.29124773   1.90042355   4.07405234
H    0.98734160   1.41335277   4.76231143
H    0.20958479   2.95969896   4.36395594
H    0.72074368   1.84945831   3.06127739
O   -3.02873690  -2.16137820   0.15460118
H   -3.02319678  -1.56250579  -0.60680831
C   -2.11799051  -3.21406474  -0.11912466
H   -2.13667597  -3.87919776   0.74847785
H   -1.08465437  -2.85802229  -0.25413400
H   -2.40165546  -3.80190982  -1.00611377
O    0.49150908  -0.88693814   1.02698818
H   -0.01108917  -1.10428020   1.82610063
C   -0.19088106   0.16400188   0.36185470
H    0.38864478   0.39628411  -0.53574208
H   -0.25886281   1.07917497   0.97063547
H   -1.20728373  -0.12071433   0.04778523
O    1.46379066  -3.41210073   3.29712445
H    0.74953997  -2.78167746   3.47272546
C    0.92144371  -4.47379005   2.52822306
H    1.73919832  -5.17459730   2.33945921
H    0.52893027  -4.13728621   1.55586731
H    0.12201128  -5.01636475   3.05670941
O    2.47388773   1.72752160  -2.17582228
H    2.24029838   1.25344432  -2.98767820
C    3.27654714   0.86271633  -1.38817801
H    3.53064347   1.41236658  -0.47779081
H    4.21542518   0.57995634  -1.88950838
H    2.74830292  -0.05798989  -1.09486003
O    1.95170233  -2.69874886  -0.53787672
H    1.45799849  -2.10124950   0.04322078
C    3.23408389  -2.89519567   0.03609189
H    3.77676806  -3.57042856  -0.63102103
H    3.18715711  -3.36368895   1.03162655
H    3.81070110  -1.96060202   0.11870317
O    1.66297161   0.12206945  -4.37055417
H    1.59738566  -0.79560558  -4.06724854
C    2.31603882   0.11352792  -5.62990481
H    2.38155947   1.15481482  -5.95688160
H    1.75833983  -0.44987393  -6.39431800
H    3.33836255  -0.29233992  -5.57602687
O    1.28916447  -2.39341185  -3.24715241
H    1.58367117  -2.61631574  -2.35160624
C   -0.12427960  -2.51092061  -3.27717458
H   -0.43917537  -2.25641968  -4.29282960
H   -0.62343043  -1.81845041  -2.58139386
H   -0.47074820  -3.53310902  -3.05838770
