90
Energy:   -536.25780871
O   -3.04763053   2.03577591  -1.06127471
H   -2.25285472   2.53334372  -0.81800335
C   -3.74242170   1.72256883   0.13526209
H   -4.63469445   1.16230542  -0.15703819
H   -4.06749336   2.61945411   0.68544619
H   -3.15140944   1.09162843   0.81746152
O    1.71338923   3.16307386   0.90806271
H    1.81938014   2.39402511   1.48750488
C    2.72822469   3.09975751  -0.08119651
H    2.59415316   3.97316260  -0.72514805
H    2.65430525   2.19808390  -0.70912799
H    3.74216597   3.14327618   0.34636230
O    1.67574056   0.76931234   2.39366390
H    1.01052224   0.28649113   1.88103193
C    1.80210641   0.12410055   3.65075069
H    2.55512564   0.68068169   4.21525461
H    2.14450539  -0.91872335   3.56098108
H    0.86535618   0.13364447   4.22970253
O   -3.28269335  -0.51021553  -2.24809022
H   -3.23311918   0.38978611  -1.89317794
C   -3.40290109  -0.41084089  -3.65812871
H   -3.45751004  -1.43331271  -4.04160547
H   -2.53637866   0.08304381  -4.12502711
H   -4.31561995   0.12020032  -3.97072565
O   -0.73330551   3.50952186  -0.42214794
H    0.11378368   3.41788823   0.03879291
C   -0.94049356   4.89063422  -0.67141795
H   -1.89875842   4.97579559  -1.19099585
H   -0.16233703   5.32772636  -1.31655376
H   -0.99959761   5.48549121   0.25347621
O   -1.78327719  -1.05699157   4.08122222
H   -1.77466770  -0.11385741   3.86020839
C   -3.06383720  -1.56628876   3.74459750
H   -3.05617053  -2.62941059   3.99993728
H   -3.28896097  -1.47479611   2.67048126
H   -3.87559623  -1.08476498   4.31201222
O    0.16093474   0.95793204  -4.26881357
H    0.92211188   0.67489527  -3.74068213
C   -0.33241142   2.16136130  -3.70233200
H   -1.18930665   2.46610292  -4.30924906
H    0.40806652   2.97623306  -3.72363357
H   -0.67764871   2.03260477  -2.66454093
O   -1.60614367   1.52478345   2.96132002
H   -1.19769463   1.14339074   2.17003483
C   -1.11703128   2.84893194   3.10250646
H   -1.58710637   3.26362211   3.99835615
H   -1.38105851   3.49303032   2.24915763
H   -0.02520809   2.88640939   3.24141254
O   -2.68298011  -1.91891273   0.13471578
H   -2.97772615  -1.56605374  -0.71794980
C   -2.00533962  -3.13981280  -0.11576412
H   -1.68015435  -3.52353506   0.85505871
H   -1.11281729  -3.00894401  -0.74747180
H   -2.65346883  -3.89784924  -0.58276157
O   -0.58720164  -0.14835122   0.89672767
H   -1.25216448  -0.84873703   0.82118019
C    0.00176142   0.02574413  -0.38207923
H    0.74819254   0.81801365  -0.27895407
H   -0.72623194   0.33996934  -1.14632102
H    0.51350258  -0.88072613  -0.74153713
O    0.06919590  -2.83735710   2.92976387
H   -0.59644573  -2.23871109   3.29985502
C    0.38008608  -3.80190616   3.92250058
H    1.13107329  -4.46798231   3.48908855
H   -0.49078192  -4.41112207   4.21098321
H    0.80687113  -3.35274310   4.83293146
O    3.56039602  -0.45979978  -0.29234806
H    3.06826830  -1.12382017   0.21293454
C    4.62238259   0.00381788   0.52605095
H    5.16627920   0.75088629  -0.05837224
H    5.32848484  -0.79570666   0.79983454
H    4.26761361   0.48570132   1.45055334
O    2.14577008  -2.46113592   1.07324990
H    1.41716434  -2.57841974   1.70078592
C    2.09071335  -3.53225219   0.14469592
H    2.91812038  -3.38460175  -0.55464817
H    1.15347481  -3.54615230  -0.43337677
H    2.21895246  -4.51618383   0.62240983
O    2.40761398  -0.01904902  -2.79026924
H    2.85621038  -0.10448797  -1.93593633
C    3.37887684  -0.20679347  -3.80709481
H    2.85668712  -0.10730049  -4.76255503
H    3.84206933  -1.20534537  -3.77356633
H    4.17938116   0.54882309  -3.77525485
O    1.03154251  -2.55296716  -2.94418843
H    1.50904427  -1.71014227  -2.93634325
C   -0.23514355  -2.32449405  -3.54071190
H   -0.75965894  -3.28385227  -3.54149118
H   -0.15793350  -1.97679014  -4.58278576
H   -0.84621441  -1.60178626  -2.97762826
