90
Energy:   -536.36234410
O   -3.38599473   2.51863787  -0.65477871
H   -2.51824466   2.92621068  -0.51579130
C   -3.62456263   1.63414796   0.42840951
H   -4.60584157   1.18376857   0.25597038
H   -3.65198317   2.15034746   1.40081042
H   -2.88205400   0.82292141   0.48645912
O    1.78964841   3.28237877   0.66185811
H    2.00499628   2.53974984   1.24542544
C    2.72254730   3.27455102  -0.40686644
H    2.46551772   4.11722539  -1.05441636
H    2.67198723   2.35368863  -1.00872477
H    3.76088068   3.41028373  -0.06595918
O    1.94898007   0.92407531   2.27094251
H    1.25993785   0.44827877   1.78384730
C    2.51714205   0.02071666   3.20564508
H    3.29117623   0.57284244   3.74556490
H    2.99135240  -0.84818489   2.72303553
H    1.78443983  -0.34713973   3.94090454
O   -2.66937363  -1.10944249  -2.36203609
H   -2.12330855  -0.49009148  -2.86863310
C   -4.02516970  -0.73019145  -2.53673422
H   -4.62626205  -1.43805475  -1.95958369
H   -4.34978668  -0.78411768  -3.58768289
H   -4.23529813   0.28295654  -2.15970036
O   -0.83785537   3.70709996  -0.27639920
H    0.07451674   3.57718643   0.02213535
C   -0.97168547   5.06217156  -0.67439950
H   -2.00501744   5.19111887  -1.00769041
H   -0.30731999   5.32701735  -1.51180773
H   -0.78862555   5.76786473   0.15098741
O   -1.04489355  -0.65124977   4.14259381
H   -0.82407007   0.29120733   4.18047363
C   -2.35444593  -0.76539247   3.60913548
H   -2.58715709  -1.83312614   3.57342102
H   -2.43349455  -0.36437899   2.58653251
H   -3.11342787  -0.27135291   4.23575231
O   -0.99962700   0.73049845  -3.70942195
H   -0.04158000   0.87320815  -3.69516846
C   -1.62542297   1.99885674  -3.59905701
H   -2.70387840   1.81967331  -3.61673127
H   -1.37708348   2.66985523  -4.43623432
H   -1.38025970   2.51345165  -2.65679144
O   -0.13992153   2.02068528   3.90573305
H    0.70286669   1.82068434   3.47199243
C   -0.92445405   2.77427739   2.99516102
H   -1.86997862   2.99093321   3.49966944
H   -1.15011517   2.22164233   2.06971578
H   -0.45580273   3.73269155   2.72205743
O   -2.40130879  -1.88621313   0.32440526
H   -2.57194520  -1.66465694  -0.60307485
C   -1.95159716  -3.23091136   0.37001102
H   -1.76412026  -3.46397532   1.42168531
H   -1.01364454  -3.38471515  -0.18619632
H   -2.70117600  -3.94307556  -0.00910776
O   -0.11386871  -0.24711588   0.81081551
H   -0.84513851  -0.88215611   0.79102527
C    0.02180246   0.29389520  -0.49357481
H    0.84963531   1.00702976  -0.45336208
H   -0.87848856   0.83430117  -0.82556097
H    0.26607945  -0.47055078  -1.24771566
O    0.45336615  -2.76863520   3.03950985
H   -0.06518894  -2.01777177   3.36466830
C    0.28707940  -3.83666675   3.95830858
H    0.87768272  -4.67403598   3.57688270
H   -0.76013053  -4.16723326   4.04110041
H    0.65470513  -3.59105511   4.96692326
O    3.30802726  -0.44482007  -1.81935500
H    2.87239699  -1.27957904  -2.04701044
C    3.70836781  -0.52476847  -0.46072721
H    4.19717215   0.42341620  -0.22093284
H    4.42941479  -1.33661371  -0.27694504
H    2.85749213  -0.65356771   0.22643993
O    1.59035112  -3.38496362   0.53560094
H    1.17812761  -3.12267904   1.37208277
C    2.78155530  -4.09038558   0.84535285
H    3.23303534  -4.37836266  -0.10791531
H    2.59400597  -5.00766107   1.42518752
H    3.50976697  -3.47423378   1.39566372
O    1.78177391   1.16463208  -3.53276860
H    2.36828578   0.70862690  -2.91108832
C    2.22882059   0.86463181  -4.84527875
H    1.55729270   1.38608812  -5.53275152
H    2.18346883  -0.21158500  -5.07435937
H    3.25433108   1.21764362  -5.03629762
O    1.77705653  -2.76276376  -2.19931096
H    1.63284007  -3.04485416  -1.28386031
C    0.55703484  -2.93932152  -2.90138516
H    0.73726970  -2.61686514  -3.93047334
H   -0.26213588  -2.32849089  -2.49074833
H    0.22851156  -3.99016350  -2.92548773
