90
Energy:   -535.95829753
O   -3.00973881   2.89527428   0.01273187
H   -2.07003468   3.01122290  -0.19204935
C   -3.25576676   1.50320622   0.13168795
H   -4.31858136   1.39060684   0.36240790
H   -2.67851492   1.03738602   0.94567149
H   -3.04857104   0.95362632  -0.79987482
O    2.43030318   3.09415499   0.08327373
H    3.04110707   2.34916676  -0.01838460
C    2.51296366   3.53810342   1.42811975
H    1.81883576   4.37730367   1.52514866
H    3.51954556   3.89480246   1.69707329
H    2.21439736   2.76279366   2.15098229
O    2.47323542  -0.59239452   2.03505979
H    1.53878173  -0.52245523   1.78944205
C    2.57820711  -0.29456776   3.41810496
H    3.63698518  -0.37797400   3.67794646
H    2.01526202  -1.00017982   4.04896294
H    2.24700118   0.72763725   3.65930379
O   -2.91868427  -1.46531553  -2.05321736
H   -2.53151811  -0.75231686  -2.58251741
C   -3.74046468  -2.24072840  -2.91109008
H   -4.16854499  -3.03912122  -2.29887986
H   -3.17593851  -2.70677577  -3.73382174
H   -4.57019811  -1.66034230  -3.34407016
O   -0.28169150   3.43031326  -0.61794814
H    0.64741470   3.29123466  -0.38163882
C   -0.37545230   4.68346487  -1.27624422
H   -1.42831588   4.82419828  -1.53539205
H    0.21293208   4.72025020  -2.20642054
H   -0.06613655   5.52436358  -0.63593925
O   -0.73474989  -0.55632783   4.52604364
H   -0.48237340   0.30986783   4.17329095
C   -2.12787601  -0.71857622   4.31295014
H   -2.39524855  -1.69913066   4.71607558
H   -2.39954475  -0.70254720   3.24584353
H   -2.72941043   0.04118762   4.83610649
O   -1.70500947   0.56491075  -3.52067104
H   -0.75522177   0.66912098  -3.68025430
C   -2.28022423   1.86120484  -3.48484640
H   -3.34999754   1.72532158  -3.30427507
H   -2.16078974   2.40582221  -4.43453301
H   -1.87350411   2.48462634  -2.67324201
O   -0.17507354   1.81313257   3.04998919
H   -0.19326728   1.30665600   2.22441440
C   -1.01476507   2.94384627   2.87987613
H   -0.98269055   3.50308701   3.81886826
H   -2.06268245   2.66934130   2.68165021
H   -0.67175292   3.61077160   2.07344536
O   -2.37670319  -2.03749753   0.61286305
H   -2.60429634  -1.86610268  -0.31301406
C   -3.46853517  -2.72322389   1.20465361
H   -3.19544855  -2.90834797   2.24707290
H   -3.66988751  -3.69476267   0.72679697
H   -4.39760707  -2.13203110   1.19496724
O   -0.22824370  -0.19648106   1.05039469
H   -0.94417342  -0.84632977   0.99069067
C    0.22751634   0.06412502  -0.26752072
H    1.03358672   0.79787860  -0.18183868
H   -0.55649306   0.49193971  -0.91178867
H    0.63303361  -0.83228190  -0.76228096
O   -0.10146882  -3.63105096   1.20865045
H   -0.93716934  -3.17191399   1.03770850
C    0.22919528  -3.42923218   2.57337174
H    1.17285774  -3.95290500   2.74873747
H   -0.52484268  -3.84542289   3.25965840
H    0.37697352  -2.36674318   2.82248226
O    3.90684729   0.70325317  -0.00124337
H    3.53275934   0.18937386   0.72978983
C    4.32789007  -0.21230356  -0.99974857
H    4.74658821   0.38319604  -1.81556552
H    3.49721541  -0.81079738  -1.40541110
H    5.11017938  -0.90046497  -0.64304892
O    2.08098202  -3.31534682  -0.54563077
H    1.35472923  -3.45984561   0.07894929
C    3.29560314  -3.57989299   0.13792218
H    4.10305395  -3.41234657  -0.58001694
H    3.36552006  -4.61972246   0.49379242
H    3.45617688  -2.90765885   0.99529880
O    1.07567231   0.67424861  -3.77702009
H    1.40448701  -0.21015532  -3.55762581
C    2.00069095   1.61773649  -3.26058528
H    1.61503210   2.60831302  -3.51653566
H    3.00355973   1.51673761  -3.70424140
H    2.09814288   1.56193451  -2.16506413
O    1.62202539  -1.98919216  -2.97878602
H    1.87609400  -2.48092363  -2.18375610
C    0.42230221  -2.56183983  -3.47403619
H    0.15037665  -1.99613731  -4.36931399
H   -0.41105816  -2.48877661  -2.75783120
H    0.54219773  -3.61825902  -3.76105690
