11
Energy:   -203.68169264
O    1.45886556  -1.23476983  -2.01501860
H    0.65745659  -0.84733461  -1.66306767
H    2.15221666  -0.92074874  -1.43459904
O   -2.45104172  -0.38582968   1.16167081
H   -2.01610158   0.05723636   1.89019768
H   -1.78897244  -0.41882571   0.47115840
S    0.57063107   1.04571659   0.46375704
O    0.36730299   2.45815466   0.03506556
O   -0.28458294   0.14789777  -0.36245744
O    2.00188448   0.67295801   0.28302315
O    0.19791976   0.90385590   1.89939692
