11
Energy:   -201.94706162
O    0.78416586   0.57257384  -1.57891139
H    0.58522297  -0.30300633  -1.24722939
H   -0.04478980   1.04704986  -1.51616692
O    1.33973781   1.20504369   1.07843510
H    0.69010517   0.60975068   1.45238098
H    1.32121964   1.02116694   0.13924488
S   -1.31649011  -1.15582138   0.43891796
O   -2.29165242  -2.20782165   0.84197366
O   -0.71925976  -0.53934475   1.65685575
O   -0.23839775  -1.76828390  -0.38734262
O   -2.01665051  -0.10783522  -0.35581497
