11
Energy:   -201.98837777
O    0.97218055  -1.48099148   0.48708651
H    0.02831490  -1.61135467   0.57849178
H    1.11762428  -0.57677224   0.76541279
O    0.22089700  -0.54918977  -2.03425327
H    0.65979709  -0.88169545  -1.25128550
H   -0.26119390   0.22002926  -1.73073672
S   -0.76459217   1.35103763   0.90920759
O   -0.89772998   1.36016303  -0.57480422
O   -1.22292333   2.65867445   1.45703831
O   -1.59965884   0.25493250   1.47605611
O    0.66194345   1.13038053   1.27854018
