11
Energy:   -202.86473167
O    1.06715370  -3.17910698   0.80951013
H    1.07313827  -2.37746407   0.28647604
H    0.36120521  -3.04746745   1.44239212
O   -0.76063914   2.89146170  -1.49844974
H    0.01270325   2.75687839  -0.95067175
H   -1.31922741   2.13616439  -1.31477347
S   -0.13574715   0.22032467   0.36135189
O    0.67417734  -0.73002599  -0.45164009
O   -0.41824708  -0.38219341   1.69449320
O    0.62163340   1.49084317   0.54095550
O   -1.42055226   0.50267492  -0.33840105
