11
Energy:   -202.70549174
O   -1.05794985  -1.34671285  -1.18746971
H   -0.44849267  -1.59125584  -0.49105566
H   -0.98580834  -0.39402706  -1.24592673
O   -0.71046997   1.46045725  -0.94031404
H    0.18656683   1.17235192  -0.77134022
H   -1.13607606   1.43526769  -0.08330949
S    1.15460964  -0.18007416   1.32683916
O    0.78335492  -1.53021207   0.81752829
O    1.74981478   0.62158128   0.22086475
O   -0.06257081   0.50901223   1.84038732
O    2.14783966  -0.32067808   2.42857628
