11
Energy:   -210.07946370
O    1.72654872   0.08296082   0.56010187
H    1.27891332  -0.76259211   0.53019127
H    1.47151714   0.51842166  -0.25326435
O   -0.67479818   1.08985069   1.61610326
H    0.20415143   0.80485409   1.36619051
H   -1.24265769   0.75174864   0.92367678
S   -0.75305974  -0.70515888  -1.33812482
O    0.23584116   0.32752802  -1.75732973
O   -1.84132423  -0.06009602  -0.55093087
O   -1.33304143  -1.35673340  -2.54608669
O   -0.07371448  -1.73133413  -0.49815197
