11
Energy:   -203.62535486
O   -0.86320207   0.90658509  -2.41540690
H   -0.38173725   1.00398566  -1.59386165
H   -0.92953205  -0.03961999  -2.54396864
O   -0.05683752   1.04091241   2.58561239
H    0.01882477   0.13591172   2.88807037
H    0.10802416   0.99379586   1.64389454
S    0.58811346  -1.15170571  -0.14828458
O    2.02763404  -1.51642257  -0.27019485
O    0.45782989   0.32908884  -0.04643326
O   -0.14983946  -1.63375858  -1.34959658
O    0.01682937  -1.78573054   1.07308638
