11
Energy:   -203.67857813
O   -0.02643950  -1.88570421  -2.17786681
H   -0.82644814  -1.49006584  -1.83190683
H    0.62815786  -1.73991597  -1.49487345
O    1.14112403   2.65186226   0.95398841
H    1.75245693   2.01440900   0.58499346
H    0.34694759   2.14786006   1.13146351
S   -0.81769255  -0.47755848   0.79017570
O    0.58315304  -0.81196359   0.40820074
O   -1.70013128  -0.59655214  -0.40449680
O   -1.28267988  -1.41948263   1.84689975
O   -0.87111208   0.91776442   1.31009913
