11
Energy:   -202.80133366
O    0.57365674  -2.39814574  -0.72424844
H   -0.12863203  -2.08855019  -1.29623876
H    0.58752480  -1.77173195  -0.00061505
O    1.61371871   1.76445139   1.06472138
H    1.28476074   2.45094537   0.48442446
H    0.98995318   1.04547419   0.96362637
S   -1.37965427   0.30311780  -0.15286573
O   -1.52119454  -0.57526169  -1.34807107
O   -0.25450199  -0.18609834   0.69259268
O   -1.09997281   1.69898706  -0.59266948
O   -2.64294772   0.27484421   0.63668495
