11
Energy:   -202.68923558
O    0.41810434  -2.39243389   1.72731912
H    0.96594480  -1.71233028   1.33544955
H   -0.44415080  -1.98587436   1.81367466
O   -1.79685948   1.00661538  -1.88277189
H   -0.90742089   0.99422224  -2.23629312
H   -1.68122250   0.90188906  -0.93837138
S    0.94718935   0.88992341   0.05998313
O    0.94917568   0.88627562  -1.43001108
O    1.71710964  -0.28342856   0.56055070
O    1.57844602   2.14576914   0.55441871
O   -0.45597392   0.81107745   0.55497419
