11
Energy:   -202.75767745
O    1.28062026  -1.14828881   1.23345566
H    0.36285008  -1.34527581   1.04603670
H    1.50725955  -0.45177177   0.61723290
O    1.41695133   1.11028472  -0.40697098
H    0.85543549   1.55303106   0.22935244
H    0.80746902   0.70526250  -1.02399624
S   -1.73795647  -0.09080256  -0.48423795
O   -1.77139130   1.17658167   0.29852595
O   -0.71701123   0.01905657  -1.56391465
O   -1.38640172  -1.22293403   0.41841792
O   -3.07702164  -0.33591447  -1.08998100
