11
Energy:   -202.55111410
O    0.21596385   1.81540709   0.25066994
H   -0.39254203   1.23946430   0.71353314
H    1.05847478   1.36377487   0.30002099
O   -0.29537780   0.26755848  -2.06076052
H   -0.25439511  -0.56914358  -1.59763859
H   -0.37177930   0.92245055  -1.36685055
S    0.01872962  -1.39353228   1.07148650
O   -0.13201936  -1.75959566  -0.36495784
O   -1.03900434  -0.41399201   1.44804953
O   -0.11472513  -2.61636430   1.91230260
O    1.36066732  -0.78417716   1.29055173
