11
Energy:   -202.91460563
O   -1.05767095   1.54472219   0.18132552
H   -1.25493709   0.70752521  -0.23869726
H   -0.64843179   1.30547872   1.01290096
O    1.46881486   1.02815681  -1.07057431
H    0.60468430   1.36809328  -0.83829553
H    1.45655286   0.11828294  -0.77357090
S   -0.17902048  -1.68687638   0.49914442
O   -0.25920063  -0.85259991   1.73107540
O    1.17597155  -1.55084528  -0.10549775
O   -0.42583171  -3.11406607   0.84887837
O   -1.20702112  -1.22999428  -0.47787832
