11
Energy:   -203.00253416
O    1.81814349   0.74750693  -0.97408733
H    1.61306317   0.97946959  -0.06834607
H    1.01684746   0.34195966  -1.30527902
O   -0.94777315  -1.19423009  -1.40254449
H   -1.31312396  -0.38521250  -1.04443674
H   -0.47514949  -1.58909248  -0.66978094
S   -0.49345635   0.30310523   1.52558249
O   -1.15363855   0.39056126   2.85847818
O    0.72953324   1.15420353   1.52027746
O   -0.11523395  -1.11160157   1.25053246
O   -1.43448615   0.77925769   0.47304186
