11
Energy:   -201.91553661
O    0.18749906  -1.75352600   0.30701064
H   -0.43351245  -1.16456490   0.73561464
H    1.00520996  -1.25707109   0.27364534
O   -0.25345925  -0.35289108  -2.11287805
H   -0.23199258  -1.06594187  -1.47465426
H   -0.21280816   0.44388400  -1.58398411
S   -0.00562162   1.42137279   1.09222254
O   -0.22514543   2.68611655   1.84874916
O   -0.03021771   1.70663540  -0.37000872
O    1.31675920   0.84375491   1.46339171
O   -1.08388256   0.44898430   1.42675804
