11
Energy:   -203.84041556
O   -0.46654358  -0.98761632  -2.26875437
H   -1.10434515  -0.66520591  -1.63197142
H    0.26651851  -1.29880544  -1.73770526
O    0.48884068   2.47861838   0.70319660
H    0.68339676   1.70923685   1.23838988
H   -0.11013393   2.15700886   0.02938017
S    0.05190911  -0.94920298   1.02025420
O    1.00993716  -1.46875971   0.00421135
O    0.75459813   0.00545829   1.92300002
O   -1.06961361  -0.24910662   0.33312112
O   -0.48728523  -2.08440389   1.82068433
