11
Energy:   -206.60516656
O    3.21757908  -1.04545086   0.77349346
H    2.53457858  -0.60455240   1.27881583
H    2.81669178  -1.20908377  -0.08017246
O   -3.11468760   1.21069698  -1.05779475
H   -3.26971132   0.35167998  -0.66499800
H   -2.20150899   1.40840797  -0.84983556
S   -0.00882705  -0.04555644   0.17049619
O   -0.50032856   1.29472030  -0.25633460
O   -1.17114677  -0.93469188   0.45076578
O    0.82033382  -0.63954638  -0.91567517
O    0.81583332   0.09729218   1.40322875
