11
Energy:   -202.10155793
O   -1.68838327  -0.48104349   0.04735075
H   -1.15958459  -0.75848886   0.79543354
H   -1.09926298  -0.55471324  -0.70347673
O   -0.53662911   1.90112761   0.86618842
H    0.32339072   1.55507627   0.62776402
H   -1.15865325   1.27936521   0.48839306
S    1.47411229  -0.83851376  -0.59119146
O    0.39995747  -0.75309167  -1.62026605
O    1.66836757   0.49893144   0.03618818
O    1.08295494  -1.82544793   0.45430215
O    2.74516917  -1.27444689  -1.23499013
