11
Energy:   -203.56144595
O   -0.16296565   0.67955615   2.58244030
H    0.38542544   0.42769399   1.83942986
H   -0.98740105   0.21427393   2.44084030
O    1.41490952   1.01020066  -2.10613793
H    1.37047415   0.56740748  -1.25867611
H    0.61943130   0.73572020  -2.56232509
S   -0.74979230  -1.02819728  -0.26974415
O    0.53852240  -0.45012055   0.20583183
O   -1.75448825  -0.97336093   0.82920035
O   -1.24568133  -0.24404850  -1.43563642
O   -0.53752202  -2.44525914  -0.67837239
