11
Energy:   -203.17930888
O    1.84211337   0.33996686  -0.09185107
H    1.49734670   0.42678687   0.79687277
H    1.15457111   0.69985222  -0.65220812
O    0.38909844  -2.01996474   0.07248107
H   -0.48114081  -1.62378034   0.11667853
H    0.97036828  -1.29675603  -0.16273458
S   -1.48688586   0.99068271  -0.01549018
O   -0.59964533   1.19065110  -1.19570917
O   -1.86280453  -0.44759297   0.08524823
O   -0.76763714   1.40391576   1.22225767
O   -2.71745647   1.81575694  -0.17375743
