11
Energy:   -201.84858051
O    1.04769881  -0.76925800   1.24347532
H    0.49025126  -0.00022836   1.36212389
H    0.45657908  -1.44535007   0.91225210
O    1.70803279   0.12293985  -1.38417046
H    1.76929085  -0.16203812  -0.47243209
H    0.79465259   0.38822552  -1.49183653
S   -1.75322492   0.50053021  -0.02088718
O   -3.07289468   1.18275333  -0.13553164
O   -1.00546523   1.05753550   1.14130925
O   -1.96522569  -0.96069155   0.17907948
O   -0.96931409   0.72252354  -1.26840583
