11
Energy:   -203.02888872
O   -1.38162021  -2.83491376   1.00922909
H   -1.88425844  -2.02629626   1.10784146
H   -0.64081878  -2.59084773   0.45436257
O    2.05055067   2.57866869  -0.70000968
H    1.78387641   2.09299590  -1.48054708
H    1.56914983   2.16473350   0.01633014
S   -0.42010701   0.17046185  -0.12996036
O    0.39530219   0.94300671   0.84900964
O   -0.53614714   0.94290538  -1.39880459
O    0.23946989  -1.13735664  -0.40321691
O   -1.77905299  -0.06670809   0.43317040
