11
Energy:   -203.49566478
O    2.13383744  -1.79688596   1.03828955
H    2.16767931  -1.00442678   0.50247705
H    1.21026455  -2.04836672   1.03674438
O   -1.35887163   2.80503422  -0.14495602
H   -0.42007675   2.74231943  -0.32091874
H   -1.67073603   1.90078329  -0.18104914
S   -0.56068422  -0.71041485  -0.54559733
O   -1.79053568   0.12211916  -0.42537877
O   -0.57538715  -1.43286523  -1.84865115
O    0.64164674   0.16702034  -0.47771667
O   -0.51846076  -1.69793366   0.56935729
