11
Energy:   -202.02060670
O   -1.38516581  -0.22669452  -1.61635068
H   -1.50805985  -0.24587576  -0.66726639
H   -0.47063337   0.02989019  -1.73478437
O   -1.35459572  -0.31726070   1.15964007
H   -0.84113998  -1.12154691   1.08401781
H   -0.70350344   0.38437703   1.15574272
S    1.75048885   0.40476312   0.19591153
O    1.65876551  -0.96780129   0.76840936
O    0.87319930   1.32607728   0.97156820
O    3.16035745   0.88095472   0.27082559
O    1.30963313   0.37982179  -1.22715705
