11
Energy:   -204.00249674
O    0.28202224  -1.24510367  -1.29717838
H    0.41593342  -0.29757229  -1.27517986
H   -0.61714941  -1.36753301  -0.99265703
O    1.41770298  -0.91816755   1.31056450
H    0.81288944  -0.19703213   1.48490936
H    1.25513692  -1.15212941   0.39674506
S   -1.01401287   1.43456443   0.08245468
O    0.09906363   1.46953963  -0.90746321
O   -0.47631664   1.06314262   1.42149486
O   -1.65291672   2.77844878   0.15911468
O   -2.02588178   0.42712670  -0.34332760
