11
Energy:   -205.54513062
O    0.30954958   1.36385478   2.07616566
H    0.67108786   0.58418035   1.65470428
H    0.03500897   1.92374189   1.34995238
O   -0.58488715  -2.47813002  -0.01602452
H   -1.25031929  -2.11029497  -0.59751338
H    0.09914065  -1.80947801   0.01922176
S    0.19644794   0.70717076  -1.26596110
O   -0.96306341  -0.00712341  -1.87045862
O   -0.26862543   1.98790587  -0.66303130
O    0.80907091  -0.14578960  -0.20895980
O    1.20840971   0.99369018  -2.32139466
