11
Energy:   -202.58934205
O    0.09954462  -0.26935248   2.02893017
H    0.36959121  -0.92562465   1.38658017
H   -0.27452587   0.43926000   1.50531631
O   -0.52834747   1.85967683   0.16055456
H   -0.93758868   1.14340012  -0.32493607
H    0.40532347   1.77904424  -0.03435262
S    0.24819771  -1.10428292  -1.33504414
O    1.20764188  -0.02135016  -1.69116706
O    0.69731007  -1.77340599  -0.08177944
O   -1.10641992  -0.51934022  -1.12779276
O    0.19425880  -2.10303532  -2.43943730
