11
Energy:   -205.67032390
O   -2.06856646  -1.08736627  -1.58557096
H   -1.44111883  -1.63947740  -1.11897197
H   -1.65881351  -0.22253422  -1.60556859
O    0.93343537  -0.33695522   2.48322989
H    1.08664868  -0.87214977   1.70456159
H    0.77507536   0.54325994   2.14209175
S    0.67527103   0.99106912  -0.56625046
O   -0.57149829   1.11520721  -1.37263498
O    1.80580164   1.62823594  -1.29838363
O    0.48758108   1.67082907   0.74630389
O    0.97919969  -0.44999575  -0.34028709
