11
Energy:   -204.02671185
O   -1.86476033   1.36892278  -1.10838630
H   -1.23317223   0.73082458  -1.44028840
H   -1.43626721   1.75594857  -0.34494898
O    0.29912560  -2.64330750   0.17353482
H    0.34108889  -1.84646674  -0.35515765
H    0.36078815  -2.33499028   1.07762004
S    0.98997266   0.82682401   0.56583628
O    0.54761667  -0.00651827  -0.58740343
O    1.27176611  -0.05275467   1.73503849
O    2.22614251   1.57155663   0.19521865
O   -0.08563465   1.79501235   0.92049143
