11
Energy:   -203.05537897
O    1.17342144  -2.13904751   2.52708961
H    1.35202842  -1.46451141   1.87185497
H    0.32857020  -2.50719488   2.26838951
O   -1.15546715   2.50574522  -2.02538372
H   -1.45623485   2.28080034  -1.14494608
H   -0.47619536   1.85981427  -2.21927774
S    0.05055144  -0.16600851  -0.35006473
O   -0.98161403   0.76196005   0.19179206
O   -0.52851887  -1.53291294  -0.47793132
O    0.49464136   0.31254205  -1.68942037
O    1.21769732  -0.20562322   0.57530071
