11
Energy:   -203.61807147
O    1.09739295   1.78117005   0.27003157
H    0.55163294   1.33300163   0.91619171
H    1.13847201   1.17604570  -0.47048776
O    0.87392662  -0.31654765  -1.53858517
H   -0.06061222  -0.13919584  -1.43174255
H    1.07577954  -0.95833899  -0.85770991
S   -1.29790270  -0.82929386   0.85841948
O   -1.67342658  -0.23068587  -0.45335424
O   -0.39745191  -1.99481543   0.63292483
O   -0.59327532   0.18991621   1.68595262
O   -2.52745701  -1.28159034   1.56815473
