11
Energy:   -203.93431509
O   -1.07959047   1.15537501   1.94309901
H   -1.35358089   0.61978163   1.19858519
H   -0.12977843   1.04345013   1.98261819
O   -1.05918609  -0.41240375  -2.17357600
H   -0.29563643   0.14132296  -2.33670325
H   -0.87918145  -0.82688193  -1.32975255
S    1.34568614  -0.47971013   0.18986338
O    2.36674598  -1.56474141   0.17424509
O    1.54371835   0.37131246   1.39677837
O    1.48955255   0.35535444  -1.03572612
O   -0.01727235  -1.08076603   0.22415618
