11
Energy:   -204.96140392
O    1.72936641   0.04805765   1.67097938
H    1.42018016  -0.34430349   0.85446946
H    0.94676260   0.11072254   2.21855243
O    0.22978667   1.31101260  -1.98052220
H   -0.69918313   1.20960736  -1.77324477
H    0.67228730   0.67769903  -1.41542136
S   -1.21126337  -0.84712160   0.13405666
O    0.21590932  -0.90580595  -0.29001203
O   -1.87404959  -2.14610130  -0.17166568
O   -1.28371274  -0.58525200   1.59907387
O   -1.90320049   0.24867288  -0.60116951
