11
Energy:   -202.37625984
O   -0.98390860  -0.78536866  -1.61451791
H   -0.87169331   0.14251069  -1.40792777
H   -0.58566703  -1.24559413  -0.87571616
O    0.51833191  -1.74551381   0.68385687
H   -0.00915099  -1.06262682   1.09817439
H    1.32866414  -1.30288341   0.43152407
S    0.19348956   1.66528269   0.49470199
O    1.59891016   1.19848604   0.33040400
O   -0.45935406   1.75540649  -0.84162615
O   -0.55396966   0.69967573   1.34852160
O    0.18837181   3.00756252   1.14150853
