11
Energy:   -203.72520513
O   -0.23390426  -2.57387122   0.79044630
H   -0.60715692  -2.00398769   1.46286511
H   -0.08457680  -1.99609816   0.04204035
O    1.97156741   1.42133928  -1.37175196
H    1.36488883   0.69101258  -1.25011371
H    1.55375092   2.15741360  -0.92469959
S   -1.10848390   0.66181478   0.35388944
O   -1.30411545  -0.02578262   1.66119128
O   -0.24810450  -0.17870909  -0.52552338
O   -2.43097501   0.87212210  -0.29947731
O   -0.45074064   1.97962873   0.57936715
