11
Energy:   -204.87378342
O   -2.26931212  -0.92461047  -1.16474949
H   -1.32185617  -0.92437263  -1.02851803
H   -2.53368091  -0.01708921  -1.01393123
O    1.89365115  -1.07369102   1.63204945
H    1.65257897  -0.14913148   1.57455410
H    1.52930844  -1.46647843   0.83882547
S    0.28300573   1.27387947  -0.24667474
O    0.87746417   2.14463194  -1.29953243
O    0.36379375  -0.15056432  -0.67624798
O    1.03447544   1.45173952   1.02759332
O   -1.14371046   1.64971077  -0.03851188
