11
Energy:   -203.12399974
O    1.58731403   0.03443844  -2.14991219
H    1.05346851   0.82888926  -2.14049397
H    1.09108872  -0.59437165  -1.62589866
O    0.47622332  -0.10704373   2.74887309
H   -0.32763752   0.23416744   2.35693618
H    0.91683281  -0.56468928   2.03287332
S   -1.33649303   0.04698316  -0.34955902
O   -1.62629935   0.44445959   1.05689923
O   -0.27845527  -1.00207336  -0.36124231
O   -2.57548066  -0.49017172  -0.97922106
O   -0.86573684   1.23571815  -1.11467192
