11
Energy:   -203.02734609
O    0.94704254   0.76162868   1.65685153
H    0.01991129   0.89072841   1.45686966
H    1.12425740  -0.14322516   1.39981794
O    0.90557224   1.06776476  -1.71366215
H    0.21375908   0.42722241  -1.87898574
H    1.12671596   0.94913606  -0.78994437
S   -1.20672472  -1.11723193  -0.02254327
O   -1.09940651  -0.80418554  -1.47532845
O   -1.54454594   0.12399065   0.72934988
O   -2.27636289  -2.13272094   0.18901348
O    0.09341649  -1.65601191   0.46679200
