11
Energy:   -202.62184570
O    0.61215839  -0.06505528  -2.03954121
H    0.08149589   0.61490103  -1.62446462
H    0.89852200  -0.62153138  -1.31527463
O    0.76994955  -1.60439640   0.25446904
H   -0.18220514  -1.69586540   0.21887814
H    0.91443592  -0.77242320   0.70521967
S   -0.86836001   1.14064437   1.07735813
O   -0.94543466   1.50916734  -0.36429034
O   -1.67700763  -0.08706694   1.32008010
O    0.55123802   0.88178129   1.44861460
O   -1.40223576   2.25869581   1.90502817
