11
Energy:   -204.07545322
O    0.10698188  -0.95880048  -1.94533427
H   -0.55036798  -0.29722655  -1.72982799
H    0.59688223  -1.08400397  -1.13258979
O   -1.21284922   1.19350217  -0.55521305
H   -1.36002364   0.59675290   0.17858654
H   -0.31874158   1.51160131  -0.43024780
S    0.75396095  -0.24590368   1.57472258
O    1.22917175  -1.13684776   0.47905232
O    1.39323891  -0.65223447   2.85781221
O    1.11991458   1.16424089   1.26220018
O   -0.72648144  -0.35877335   1.69982564
