11
Energy:   -201.99745175
O    0.16415522   1.79633888  -0.56312984
H   -0.33922187   1.73892548   0.24899518
H   -0.03605428   0.98364308  -1.02753650
O    1.84837712   0.06754756   0.90397838
H    1.48052289   0.70564543   0.29263050
H    1.27438577  -0.69481815   0.82938412
S   -1.23881241  -1.26677529  -0.19637473
O   -1.86101446  -0.30098679   0.75242303
O   -2.23074802  -2.31887150  -0.55589844
O   -0.81012266  -0.54658563  -1.42830491
O   -0.05336448  -1.90065725   0.44628140
