11
Energy:   -202.01546581
O    1.72805312   2.16813447  -0.30905375
H    1.16406864   1.77170603   0.35502294
H    1.92254389   1.45404421  -0.91607952
O   -2.84769559  -0.69534444  -0.31608091
H   -2.07660736  -1.25957413  -0.25863841
H   -2.59241457   0.10701128   0.13920884
S    0.74752127  -0.98141813   0.37156327
O    0.26146795   0.24024154   1.07256243
O   -0.41037863  -1.86043974   0.04493068
O    1.44327930  -0.58868859  -0.88612679
O    1.69571646  -1.71678574   1.25488676
