11
Energy:   -204.07203936
O    1.52796301  -0.24338177  -2.53389100
H    1.56425643   0.68978551  -2.32385897
H    1.05187717  -0.63575588  -1.80203263
O   -1.05416705  -1.14346968   2.63064032
H   -0.79291419  -1.59962546   1.83070239
H   -0.95716605  -0.21480304   2.41992508
S   -0.36064147   0.88087733  -0.06188641
O   -0.58889679   1.20234493   1.37500541
O    0.77571170   1.69450484  -0.57842464
O   -0.03867059  -0.56717626  -0.20179914
O   -1.59071020   1.19383580  -0.84232727
