11
Energy:   -201.82677742
O    0.87031237  -1.27025352   1.01423413
H    1.52679123  -0.72887674   0.57585241
H    0.21474320  -0.64665878   1.32662893
O   -0.61482665  -1.54127821  -1.29485962
H   -0.85660900  -0.61754107  -1.36181368
H   -0.14245645  -1.60615984  -0.46486648
S   -0.25661498   1.79264512   0.08077989
O   -0.56144533   3.23834715   0.27345604
O   -0.59272480   1.04413231   1.32450766
O   -1.06504699   1.26133332  -1.05246566
O    1.19275719   1.62676770  -0.22237849
