13
Energy:   -312.96793080
O    0.24218341   3.26676572  -1.39456425
H   -0.11852594   4.14663406  -1.28523753
H    1.03177952   3.39471220  -1.92030137
O   -1.54564839  -0.62564629  -0.84149187
H   -1.21334427  -1.47360547  -0.54692259
H   -2.38994392  -0.82597553  -1.24555263
O    1.15647315   0.08754236   1.07205372
H    1.88128335   0.15329841   1.69379174
H    0.88745050  -0.83015086   1.11325835
O    0.10278919  -2.49372104   1.05200636
H   -0.38394280  -2.82685752   1.80589223
H    0.62414104  -3.23929199   0.75443611
Na  -0.28263186   1.28368209  -0.22132903
