13
Energy:   -311.63765326
O   -1.00998650   2.05118289  -0.69300309
H   -1.96309931   1.97806384  -0.74261588
H   -0.79656994   2.79406445  -1.25763768
O    0.42429247  -2.37283324  -0.34161406
H    0.51988199  -3.00226658  -1.05639246
H    0.52773704  -2.89532468   0.45370586
O    2.29400926   0.85848885  -0.31622279
H    2.73361455   0.86015477  -1.16650290
H    2.89077691   1.33191353   0.26340579
O   -1.56956898  -0.46945593   1.50779974
H   -2.10456085  -0.18001169   2.24687862
H   -2.12304878  -1.09611204   1.04175889
Na   0.11365642   0.11882571  -0.02850453
