13
Energy:   -311.97703147
O   -0.36718165   0.42751358  -2.70870633
H   -0.75063627   1.07905844  -3.29580401
H   -0.00874897  -0.24059701  -3.29298888
O    1.12140018   0.96335336  -0.46059284
H    0.62148476   0.89497826  -1.27400618
H    1.90487207   1.45780540  -0.70126030
O    0.96891089  -0.48809376   3.35431249
H    1.76521813  -1.00630065   3.47088106
H    0.69202686  -0.27008607   4.24427863
O   -1.71291781  -0.83900762   0.04709361
H   -1.66176520  -0.89704955  -0.90697472
H   -2.62218564  -1.05656742   0.25235346
Na   0.04957218  -0.06748544   1.29120088
