13
Energy:   -311.59725260
O    1.31450469  -1.02394548   0.10448093
H    0.87898916  -1.22496449   0.93282230
H    2.05426544  -1.63034716   0.06894397
O    0.63625301   1.89407147  -2.98295058
H    1.29700979   2.58186493  -3.06402142
H    0.27767630   1.80053562  -3.86550689
O   -0.19941059  -1.44527543   2.42613493
H   -0.51007798  -2.32595643   2.63617921
H   -0.06099214  -1.03021597   3.27748551
O   -1.69412378   0.64605478   0.24200733
H   -1.82787725  -0.08937862   0.83990328
H   -2.41738101   1.24381108   0.43126438
Na   0.24806893   0.63735730  -1.05118460
