13
Energy:   -311.78904214
O    0.66524780  -0.39208315   2.47677069
H    0.36840391   0.04502827   3.27492428
H    1.39122936  -0.94657785   2.76263472
O   -2.02237323  -0.15324493   0.22887273
H   -2.57127815   0.63045990   0.20163339
H   -2.64164265  -0.88168969   0.18298737
O    1.13570387   1.75975106  -0.29951758
H    1.35368018   2.06770464  -1.17922365
H    1.45450418   2.44984254   0.28217990
O    0.23427128  -1.29686644  -2.34303700
H    0.95052823  -1.60663017  -2.89734221
H   -0.54769389  -1.38954975  -2.88725399
Na   0.25087255  -0.27199218   0.18264880
