13
Energy:   -312.17463534
O   -0.00859192   1.35085120   1.90445826
H   -0.48973913   1.21912490   2.72138995
H    0.67589204   1.98148715   2.12809157
O   -2.09853534  -1.09918704   0.08496407
H   -2.75662309  -0.98801918  -0.60118028
H   -2.41596622  -1.83777152   0.60454318
O   -0.19603668   1.26883800  -1.97274373
H   -0.87724297   1.24405167  -2.64473739
H    0.53128235   1.73464489  -2.38537290
O    2.26766110  -1.41454755   0.05689067
H    2.87353876  -1.65306495   0.75849852
H    2.59976973  -1.87491382  -0.71382237
Na  -0.09703375   0.01201165   0.02125978
