13
Energy:   -315.99779055
O    0.29463961   0.42165779   2.28188841
H    0.22330086   1.11381528   2.93920161
H    0.73291611  -0.29733132   2.73708091
O   -0.30428083   0.50635077  -2.20567897
H    0.37648830   0.82765147  -2.79690743
H   -0.99785104   0.19285214  -2.78611917
O   -2.33121128  -0.72910006   0.33714631
H   -2.93149997  -1.24905262  -0.19720814
H   -2.89965199  -0.25370804   0.94304187
O    2.29151421  -0.16015773  -0.38615743
H    3.02084540   0.18210943   0.13071882
H    2.70589646  -0.70959270  -1.05146970
Na  -0.17389899   0.15041508   0.04468166
