13
Energy:   -312.31968413
O   -0.23374212   1.01257173  -1.53528560
H   -0.67267488   1.49402603  -2.23654991
H    0.19376069   1.68944707  -1.01058285
O    0.58128293   2.40891818   1.16110897
H    1.39329385   2.91453437   1.19607170
H   -0.06467458   2.96156482   1.60105491
O   -0.71738986  -3.36622926  -1.03991867
H   -0.09983608  -4.01554686  -1.37643883
H   -1.57799173  -3.76623203  -1.16479483
O    0.39397590  -0.30393050   1.38216328
H    0.64710771  -0.52781801   2.27772485
H    0.42309997   0.65248280   1.35652685
Na  -0.31515139  -1.14831554  -0.66963648
