13
Energy:   -311.71901019
O    1.49415794   0.46746630   0.38710911
H    1.23165404   0.14447466   1.24908356
H    2.40051571   0.75245655   0.50341902
O   -0.09290228   0.79043262  -3.43298718
H    0.46516071   0.40425324  -4.10801536
H   -0.61679002   1.44226361  -3.89870151
O   -1.87633254  -0.56819552   0.14077800
H   -2.80967783  -0.74613999   0.02487210
H   -1.66296077  -0.95077972   0.99185595
O    0.46182961  -0.56466180   2.73143762
H    0.29079731  -0.06703535   3.53102984
H    0.84403091  -1.38706346   3.03772103
Na  -0.13789833   0.24167488  -1.19881942
