13
Energy:   -312.33644360
O   -1.78674674   0.36677828  -0.46579367
H   -2.02887117   0.41914489   0.45879562
H   -2.61956155   0.26516016  -0.92658115
O   -0.96145462  -0.29424839   2.53131120
H   -1.18353022   0.29326972   3.25362467
H   -1.27355558  -1.15319435   2.81598059
O    1.64893398  -0.07225442  -3.18931717
H    1.77880183  -0.88132898  -3.68405402
H    2.24644081   0.55579351  -3.59523987
O    1.23408726   0.12077997   0.93551940
H    2.00216541   0.21172181   1.49944970
H    0.51301386  -0.05799997   1.53911092
Na   0.40231317   0.18079111  -1.20696575
