13
Energy:   -315.26780281
O   -1.89001790  -0.98422932  -0.21353727
H   -2.75261703  -1.32207704  -0.45439722
H   -1.48296494  -1.69584631   0.28056899
O    0.62635962  -1.40673646   1.12001614
H    1.28699431  -2.04415028   0.84891233
H    0.62230404  -1.45709979   2.07588168
O    0.23556085   2.40137670   1.09914864
H   -0.14652451   2.89248682   1.82650926
H    1.11018191   2.77485584   0.99059830
O    0.80298975   0.22151236  -2.13152781
H    1.47859917   0.58012061  -2.70701359
H    0.47099913  -0.54463919  -2.59952982
Na  -0.26952922   0.51638330  -0.07544183
