13
Energy:   -313.21215843
O    3.24074927  -0.18416178  -1.41813231
H    4.15639927  -0.12582012  -1.14534452
H    3.27367604  -0.59176303  -2.28358531
O    0.38879662  -0.22434900   1.77447189
H   -0.56534284  -0.17243589   1.83063915
H    0.65932061  -0.58897318   2.61714491
O   -2.47193620   0.26978998   0.94422093
H   -2.91800392   1.10579245   1.07970271
H   -3.03312151  -0.37437956   1.37590195
O   -0.92033048   0.24516488  -1.40395217
H   -1.60797757   0.25990609  -0.73825252
H   -1.39185918   0.18479931  -2.23476414
Na   1.19576145   0.15600955  -0.38532033
