13
Energy:   -310.85450472
O   -0.24336711  -2.04391842   1.31424590
H   -0.12037246  -2.94154735   1.00543129
H   -0.24504461  -2.11659239   2.26868161
O   -2.47668085  -0.09895000  -0.43707881
H   -3.10430162  -0.76204349  -0.14962266
H   -2.98512260   0.48455179  -1.00032341
O    0.62200045   2.00053566   0.41528752
H    0.38375570   2.91351003   0.25420032
H    1.45054196   2.04926937   0.89212694
O    1.97720243   0.10139241  -1.38733047
H    2.82513861  -0.25685343  -1.12484999
H    2.19263589   0.79897637  -2.00635946
Na  -0.23733031  -0.11954063   0.00834646
