13
Energy:   -311.02488988
O    1.93903859   1.49934752  -1.56470126
H    2.35640711   2.34265656  -1.38901624
H    2.41515327   1.14806361  -2.31712818
O   -0.76484644   0.96121317  -1.22221530
H    0.15087672   1.17642528  -1.39932172
H   -1.25489176   1.41429000  -1.90837040
O    1.19730245  -0.77584556   0.92029662
H    1.89684232  -0.22243412   0.57300482
H    1.65262072  -1.44961616   1.42522266
O   -2.58124156  -1.70946947   1.88786329
H   -2.89542632  -1.37393796   2.72746938
H   -3.01743034  -2.55578324   1.78925195
Na  -1.10530523  -0.49789577   0.52570349
