13
Energy:   -313.16340605
O    0.18281731   0.39679533   2.06296600
H    0.24367880   1.23676885   2.51790800
H   -0.04578644  -0.23124848   2.74819089
O   -1.90466679   0.10329204  -1.27212322
H   -2.27830911   0.96073609  -1.47562500
H   -2.64354052  -0.50183063  -1.33634169
O    1.80078780   1.76490665  -0.96206617
H    2.09646761   2.09632577  -1.80998519
H    2.36468638   2.20174286  -0.32376814
O    0.08881093  -2.30796973  -0.07640216
H   -0.74008763  -2.78359463  -0.13062373
H    0.68124392  -2.90895820   0.37533655
Na   0.07027106  -0.00394640  -0.20557728
