13
Energy:   -311.21056884
O    3.15158228  -0.74846170  -1.40455408
H    3.74266632  -1.49795545  -1.33306551
H    3.62536471  -0.12032006  -1.94971473
O   -2.26771617   0.54413981   1.50797863
H   -3.04315539   0.00827611   1.67463989
H   -2.47551598   1.39417735   1.89590549
O   -0.96857638   0.55843662  -1.61897841
H   -1.18569656   0.84837091  -2.50499691
H   -1.71736551   0.82907436  -1.08765751
O    0.23519647  -0.54570904   1.47757858
H    0.59950348  -0.59488959   2.36137354
H   -0.64548361  -0.19137937   1.60039927
Na   0.97801087  -0.42767191  -0.67474456
