13
Energy:   -311.17790840
O    0.19964650  -0.09326231   2.09393680
H   -0.07612266   0.57690441   2.71928454
H    0.60783418  -0.77091707   2.63282334
O   -2.47051465  -0.31892046  -0.69756830
H   -3.02730724   0.45766106  -0.64157712
H   -3.03624732  -0.99322170  -1.07372815
O    1.14253530   2.27829366  -0.45002651
H    1.09467163   3.07832993  -0.97336472
H    1.92622324   2.39005579   0.08809457
O    1.05321618  -1.90583625  -0.98900219
H    1.82500160  -1.68022483  -1.50830808
H    0.99046100  -2.85876848  -1.05391608
Na  -0.21249429  -0.15611829  -0.13914369
