13
Energy:   -311.60509918
O   -0.56384477  -1.14734230  -1.21313038
H    0.02181341  -1.76915870  -0.78118049
H   -0.94747613  -1.64218013  -1.93714305
O   -1.61729279   3.00232013  -1.30491021
H   -1.05091486   3.66235682  -1.70465946
H   -2.50291346   3.34934969  -1.41204740
O    0.56142180   0.44384917   1.36604794
H    0.89238465  -0.45281616   1.31421420
H    0.85871770   0.76046188   2.21904465
O    1.45855161  -2.12181789   1.16815612
H    2.23005330  -2.43245177   0.69431693
H    1.40871070  -2.68466142   1.94078468
Na  -0.74584794   1.05517954  -0.40418902
