13
Energy:   -311.89487984
O   -1.07051681  -0.86021357  -0.75437159
H   -1.78743603  -1.27990787  -1.22988750
H   -0.45172447  -0.59774877  -1.43587003
O   -1.73523514   0.78327383   2.78291229
H   -2.65382565   0.99938640   2.62254181
H   -1.44488556   1.43099906   3.42508127
O    0.93591067   0.01184638  -2.40520325
H    1.36524043  -0.56182491  -3.03987565
H    0.75993756   0.81776449  -2.89075582
O    1.81558767  -0.11045273   0.71249842
H    1.90672812  -0.19850185  -0.23627585
H    2.70284856   0.06987587   1.02311322
Na  -0.35307180  -0.46094791   1.40178701
