13
Energy:   -311.58220635
O    0.23373950   0.86446356   2.38897562
H   -0.10717726   1.49950627   3.01883939
H    0.66441038   0.20022726   2.92706909
O   -2.21733430   0.15546086  -0.44378856
H   -2.99193324   0.64882883  -0.17394348
H   -2.55807263  -0.69714865  -0.71431815
O    0.94844512   1.14320685  -1.95693874
H    1.84608073   1.27063388  -2.26393144
H    0.50106793   0.72273952  -2.69130426
O    1.02220117  -1.81599328  -0.06833313
H    1.87762219  -2.05246415   0.29023103
H    0.65432912  -2.64388770  -0.37735227
Na   0.15080614   0.58077745   0.12241877
