13
Energy:   -311.26650593
O    0.20310280   0.66268533   2.09836595
H   -0.40412249   0.98362579   2.76507917
H    1.03923146   0.57730806   2.55643956
O   -2.33435336  -0.83336195  -0.70689138
H   -2.82274037  -0.09859829  -1.07814916
H   -2.59551483  -1.58699101  -1.23610758
O    0.61854678   2.03665303  -1.12989987
H    0.86365913   2.94011409  -0.93012525
H    0.94922113   1.88858739  -2.01588119
O    1.34243327  -1.84957583  -0.11325733
H    2.29926014  -1.82288981  -0.11468818
H    1.12839147  -2.78242458  -0.09872523
Na  -0.21898884  -0.13997269  -0.08702599
