13
Energy:   -311.78079762
O    0.24378874   0.58826736   2.54279980
H    0.42448755   1.29000200   3.16821829
H   -0.08656377  -0.13226124   3.07939799
O    1.69774124   0.20559378   0.21555056
H    1.36416394   0.38673098   1.09426971
H    2.64858481   0.27545321   0.30068577
O   -1.62428165   0.97754070  -0.01500550
H   -1.36353215   1.19693866   0.87948099
H   -2.56030307   1.17513770  -0.04742746
O   -0.27589373  -1.70901426  -3.01299389
H   -0.69269344  -1.63903236  -3.87183752
H    0.26190457  -2.49873287  -3.07086755
Na  -0.06766401  -0.16998140  -1.25776311
