13
Energy:   -310.95118532
O   -0.43154678  -0.99581225  -3.40419105
H    0.21836320  -0.64969853  -4.01579071
H   -1.05387402  -1.46815803  -3.95721014
O   -0.03696105   1.60339305  -0.12383077
H    0.02025226   1.58334601   0.83144751
H    0.11992689   2.51904485  -0.35448160
O    0.21256168   1.11361702   2.58012960
H    1.02628578   1.30422747   3.04676928
H   -0.47476978   1.24269312   3.23369419
O    0.17344910  -1.77972365   0.75164667
H    0.24772070  -1.35504260   1.60625863
H    0.33494905  -2.70632960   0.92927275
Na  -0.35115984  -0.42819130  -1.14668319
