13
Energy:   -314.48921926
O    0.60217347   0.24199223   2.31943451
H    0.68638003   0.97463969   2.92965481
H    1.13963036  -0.45171973   2.70171146
O   -2.54186814   0.05455262  -0.16924469
H   -3.34562151   0.54218822   0.01082164
H   -2.82593161  -0.68779347  -0.70259456
O    1.48053216   1.67935291  -0.64544776
H    1.53262582   2.63391809  -0.69364942
H    2.35733511   1.37878619  -0.88442074
O    0.27764719  -1.90133402  -1.42658706
H    0.95635032  -1.84893204  -2.09952683
H   -0.04494160  -2.80091610  -1.48062778
Na  -0.19761995   0.16305305   0.11031847
