13
Energy:   -312.25375137
O    0.14977620   0.00514345   2.71722671
H    0.13007409  -0.66664809   3.39879828
H   -0.05846969   0.81888613   3.17623471
O    1.56866773   0.08597132   0.39644572
H    2.50632889   0.18448788   0.56172695
H    1.16970845   0.09171461   1.26652063
O   -1.72133721  -0.69161692   0.14299127
H   -1.57208347  -0.86037263   1.07330126
H   -2.64771612  -0.89148793   0.00843439
O    0.12565416   0.58789765  -3.45710581
H    0.89404684   0.59211464  -4.02788314
H   -0.60991124   0.76462301  -4.04357281
Na  -0.00200066  -0.01560074  -1.24494680
