13
Energy:   -311.09410076
O   -0.60710985  -1.79074769   0.67000539
H   -0.68374389  -2.12125207  -0.22505099
H   -0.78837419  -2.55084291   1.22284384
O   -0.41717764   1.68943809   2.96264730
H   -0.13594258   1.47564241   3.85227087
H   -0.90711431   2.50647044   3.05566372
O    0.50958497  -1.01365416  -2.50906447
H    1.24443311  -1.55564302  -2.79625455
H   -0.12462552  -1.07102372  -3.22370957
O    0.56726441   1.27197481  -0.96436517
H    0.81943768   2.07983203  -1.41158682
H    0.58913020   0.60234622  -1.64799614
Na  -0.10655700   0.44186702   1.04640155
