13
Energy:   -311.19366382
O   -1.65459283  -0.64197992  -0.92384353
H   -2.06523780  -0.50456425  -0.07019285
H   -2.30046982  -1.14170210  -1.42319561
O    0.95032929   0.47824186   1.07005392
H    1.65651506   0.79883421   1.63108338
H    0.21654843   0.33291446   1.66727870
O   -1.41009387   0.04690604   2.48329170
H   -1.81122501   0.74322155   3.00335935
H   -1.44258741  -0.72439512   3.04921620
O    2.16770360   0.15246107  -2.83715733
H    2.06275806   0.10334922  -3.78731853
H    3.11505608   0.16035281  -2.70043552
Na   0.54840104   0.19955042  -1.18299971
