13
Energy:   -311.24461401
O    0.43164604   0.07137525  -1.90194272
H    0.84981866   0.11874330  -2.76166347
H   -0.37682401  -0.41770675  -2.05493559
O    2.67577896   2.04787229   1.10230258
H    3.56424700   1.69871471   1.17262593
H    2.74479133   2.94639018   1.42500171
O   -0.95036140  -0.02766118   1.24646210
H   -1.42626179  -0.66125618   0.70951885
H   -1.38146274  -0.06486617   2.10027664
O   -2.07455187  -1.90212954  -0.39934598
H   -2.94322207  -1.94757299  -0.79881915
H   -1.92092784  -2.78315599  -0.05813653
Na   0.85985343   0.92248605   0.21740271
