13
Energy:   -310.92034971
O    0.85329266   1.75762982   0.71958681
H    1.14869119   1.99604051  -0.15912355
H    1.12314165   2.49204805   1.27098796
O   -1.47414686  -0.82932143   2.97495440
H   -1.80550460  -0.27319540   3.68004854
H   -1.79439283  -1.70543246   3.18967241
O   -0.20919129  -1.44223949  -0.87622506
H    0.07705189  -0.86721193  -1.58590105
H   -0.26053733  -2.31020013  -1.27652463
O    0.75540854   0.39596468  -2.63805620
H    1.62012851   0.20416103  -3.00096472
H    0.29339371   0.84732598  -3.34448888
Na  -0.32326445  -0.22690228   1.06890533
