13
Energy:   -311.07470909
O   -0.06040770   0.21477270   2.43809473
H    0.36262411  -0.30553978   3.12114001
H   -0.24917476   1.05399766   2.85797602
O   -1.90740593   0.75368726  -0.44066145
H   -2.15198745   1.29467491  -1.19149039
H   -2.72207196   0.64021396   0.04890460
O    1.79961857   0.98169332  -1.01745909
H    1.84462095   1.46451853  -1.84273871
H    2.35390754   1.48032899  -0.41716079
O    0.05855642  -2.12275675  -1.05816076
H    0.90379199  -2.18532552  -1.50301335
H   -0.22401683  -3.03098900  -0.95093025
Na   0.05844737  -0.16358903  -0.00203708
