13
Energy:   -310.85247170
O   -1.15763340   2.27652184  -1.35577935
H   -1.07839442   2.67950503  -2.22039348
H   -1.65969310   2.90869505  -0.84145947
O   -1.35343443  -0.44665781  -0.81629607
H   -1.31821782   0.48702348  -1.02421647
H   -2.12965657  -0.76589715  -1.27651046
O    1.52933272   0.88847437   0.28524593
H    2.29564246   1.25198843   0.72893361
H    1.21898363   1.59777466  -0.27761141
O    0.99421267  -2.96016307   1.86417164
H    0.52070237  -3.25768139   2.64102600
H    1.80688749  -3.46588625   1.87013444
Na   0.36598905  -1.19754961   0.49082924
