24
Energy:    -71.28197997
C   -1.90121917   0.04015297  -1.82931294
H   -1.46603741   0.53660619  -2.67136473
H   -2.88382348  -0.29855353  -2.08360759
H   -1.29448959  -0.79796394  -1.55666231
C   -1.98657710   1.01937919  -0.64380459
N   -2.05012997   1.74845762   0.23886026
C    1.42064595   2.81437807  -0.19449707
H    1.57899224   2.52817573  -1.21327813
H    2.22802211   3.43666601   0.13077290
H    0.50001056   3.35375982  -0.11451657
C    1.35575419   1.55435727   0.68852991
N    1.30743933   0.61621451   1.34598364
C   -1.31111072  -0.89845326   3.03511919
H   -2.08090599  -1.31783884   3.64865905
H   -1.53187452   0.13001525   2.83912184
H   -0.37164187  -0.97125238   3.54206856
C   -1.23757888  -1.67030241   1.70453964
N   -1.18283108  -2.24497919   0.71386268
C    1.89898992  -1.99637558  -0.93132769
H    1.23604145  -2.80073043  -1.17301506
H    1.71413034  -1.67073064   0.07101028
H    2.91173609  -2.33100548  -1.01657507
C    1.66160190  -0.82577219  -1.90340517
N    1.48485573   0.04579524  -2.62716104
