24
Energy:    -70.90667804
C   -0.70586934  -2.66434719   1.67604966
H    0.34700954  -2.59190803   1.85239820
H   -0.87718501  -3.09640550   0.71226771
H   -1.15181372  -3.28138889   2.42790884
C   -1.33283592  -1.25868314   1.72725005
N   -1.79964104  -0.21210236   1.76537106
C   -2.30478024   1.34806019  -1.29196836
H   -1.73611572   2.12844589  -1.75296619
H   -2.26111363   1.45556194  -0.22827870
H   -3.32290499   1.40998132  -1.61521265
C   -1.72073976  -0.01895660  -1.69416462
N   -1.28589508  -1.03676273  -1.99361802
C    0.86438238   2.30956632   1.69925206
H   -0.07456682   1.94078886   2.05601217
H    0.99080190   3.32502604   2.01191602
H    1.65718587   1.71211005   2.09851102
C    0.89277337   2.23871756   0.16114465
N    0.91391176   2.18596744  -0.98404623
C    2.19021491  -0.99117369  -1.96254983
H    2.13697990  -2.00279820  -2.30705247
H    3.12498758  -0.56248308  -2.25805535
H    1.38796033  -0.42633103  -2.38944495
C    2.07610637  -0.96513579  -0.42700391
N    1.99114737  -0.94574939   0.71627982
