24
Energy:    -71.57723704
C   -0.26363983   1.34346123   2.91810791
H   -1.03437510   1.29982189   2.17718758
H   -0.29688572   2.29212639   3.41189756
H   -0.41310097   0.56298014   3.63463406
C    1.10860679   1.16420961   2.24252810
N    2.13030677   1.03074863   1.73952823
C    1.66361738   1.62218173  -1.69815324
H    1.53964623   1.11471723  -2.63196859
H    2.29115835   1.03983033  -1.05631348
H    2.11559421   2.57698589  -1.86834445
C    0.28834207   1.81649804  -1.03297733
N   -0.73561291   1.96117537  -0.53772363
C   -2.82578592  -0.90013246  -1.31506086
H   -2.66211873  -0.01250951  -0.74039686
H   -3.04793177  -1.71468010  -0.65774629
H   -3.64762941  -0.74627450  -1.98274350
C   -1.55877785  -1.22674732  -2.12722666
N   -0.61543275  -1.46992693  -2.73192101
C    1.45207389  -2.04795634   0.13310642
H    1.37077233  -1.76531572  -0.89568146
H    1.69496389  -3.08792813   0.19915360
H    2.22212283  -1.47138929   0.60160846
C    0.11121013  -1.78779068   0.84444192
N   -0.88712390  -1.59408552   1.37406353
