24
Energy:    -71.24060738
C    1.29393907  -0.06541660   2.34741103
H    2.24498393   0.40381141   2.20514743
H    1.21677038  -0.41681018   3.35511467
H    0.51475634   0.64245647   2.15586710
C    1.15765108  -1.25382027   1.37750263
N    1.05617847  -2.13864083   0.65536175
C    2.02761526  -0.44602516  -2.23650761
H    1.03526949  -0.82676326  -2.11326575
H    2.73332971  -1.23840031  -2.09863874
H    2.13437893  -0.04059368  -3.22094954
C    2.28649066   0.65886468  -1.19544951
N    2.47923517   1.48150539  -0.42033443
C   -1.04701347   2.83739989  -0.11863108
H   -1.82419878   2.73781512   0.61004309
H   -1.15721963   3.76941608  -0.63253722
H   -0.09506619   2.80944154   0.36913300
C   -1.13992574   1.67955799  -1.12975394
N   -1.20910315   0.81749207  -1.88258087
C   -2.33889584  -2.31257710   0.00454333
H   -3.30405021  -2.27830171  -0.45611103
H   -2.24117787  -3.22148154   0.56063954
H   -1.58172808  -2.27323213  -0.75047193
C   -2.18019118  -1.11039030   0.95383766
N   -2.06202835  -0.21530758   1.66063044
