24
Energy:    -71.65665607
C   -1.41412926  -2.44667336   1.56653081
H   -2.37744320  -2.81887857   1.84651245
H   -1.25214637  -1.49438315   2.02675247
H   -0.65902325  -3.13224694   1.89010903
C   -1.34759965  -2.29484842   0.03547790
N   -1.29806533  -2.18180784  -1.10446058
C   -1.69666913   1.15461816  -2.08008797
H   -2.31150514   2.01240460  -2.25638114
H   -2.06534569   0.62026249  -1.22953479
H   -1.71917644   0.51703701  -2.93908901
C   -0.24874995   1.60676066  -1.81419850
N    0.82929170   1.94340130  -1.61623170
C    1.10056341   2.29152057   1.97440288
H    1.10062475   3.28037023   2.38315283
H    1.65423935   2.28401178   1.05882346
H    1.55398883   1.61763106   2.67094965
C   -0.34900058   1.84901963   1.70135128
N   -1.42826685   1.51955757   1.49805195
C    2.09387319  -1.10512559  -1.44822630
H    2.64814992  -2.00577043  -1.61106470
H    2.67115991  -0.26657086  -1.77756671
H    1.17749776  -1.14574271  -1.99913955
C    1.78416276  -0.95730367   0.05304920
N    1.55356926  -0.84724354   1.17081705
