24
Energy:    -71.74014163
C    1.82706361  -1.32835907  -2.17032594
H    2.04826221  -2.09492776  -2.88330827
H    2.18771481  -1.62256266  -1.20685615
H    2.30368513  -0.41736097  -2.46665933
C    0.30365342  -1.11279584  -2.10434197
N   -0.83059472  -0.95229921  -2.05521391
C    1.69708391   1.41793374   2.24085309
H    0.85975184   1.99175298   2.57924145
H    2.59782847   1.82655493   2.64900387
H    1.58773342   0.40340746   2.56284375
C    1.76320039   1.46411348   0.70296622
N    1.81242712   1.49849639  -0.44206047
C   -1.65238816   2.03403248  -1.10943884
H   -2.14414674   2.95712470  -1.33521403
H   -2.15914137   1.23029371  -1.60147975
H   -0.63864492   2.07759279  -1.44903601
C   -1.67431010   1.79955805   0.41244853
N   -1.69063199   1.62498117   1.54556285
C   -1.88337599  -2.19635026   0.94754215
H   -2.26470166  -1.37656119   0.37532122
H   -2.37841114  -2.23044001   1.89552801
H   -2.05840621  -3.11105035   0.42067664
C   -0.37015614  -2.01068528   1.16501444
N    0.75650482  -1.87244926   1.32693245
