24
Energy:    -71.79092412
C   -1.11165901  -0.50101440  -2.69368945
H   -0.90838951  -1.44761427  -3.14924446
H   -1.65611493   0.11486858  -3.37863835
H   -1.69292167  -0.64909060  -1.80762724
C    0.21598048   0.18809097  -2.32748297
N    1.20446842   0.70116124  -2.05482559
C   -0.37223716   3.14291924   0.14687887
H    0.57028972   2.72621294  -0.14104322
H   -0.27969689   3.60398081   1.10800197
H   -0.67305844   3.87550154  -0.57265489
C   -1.42900422   2.02470792   0.21356349
N   -2.21581533   1.19214877   0.26321323
C   -1.59870410  -1.71570770   2.18989089
H   -1.39741977  -2.38351247   3.00132271
H   -2.64638244  -1.72399765   1.97263422
H   -1.29837811  -0.72499310   2.46042363
C   -0.81277295  -2.16852597   0.94535570
N   -0.22761148  -2.50566975   0.01874268
C    3.05048317  -0.88563053   0.31698387
H    3.86598670  -1.27423688   0.89042896
H    3.42623418  -0.22014534  -0.43190847
H    2.52817920  -1.69276822  -0.15272499
C    2.08769270  -0.12245281   1.24552804
N    1.37085144   0.44576769   1.93687139
