24
Energy:    -71.22808411
C   -2.03396885   0.69900274  -1.27256714
H   -1.18313623   0.26784258  -1.75742274
H   -2.03535970   1.75748138  -1.42915616
H   -2.92871100   0.27696419  -1.68026683
C   -1.96877005   0.40355255   0.23741905
N   -1.92022657   0.18357646   1.36167241
C    0.67479352   2.72000418   1.76722652
H    0.21000282   3.61362773   2.12820678
H    1.67698180   2.66444628   2.13794347
H    0.12173336   1.86870574   2.10533083
C    0.69733594   2.73904954   0.22750930
N    0.71411980   2.75322968  -0.91888016
C    1.90010025  -0.55089804  -2.15677988
H    1.92849197   0.44387906  -2.54986082
H    1.02078512  -1.04858879  -2.50892745
H    2.76743050  -1.08728608  -2.48070146
C    1.87648660  -0.49433286  -0.61800024
N    1.85890517  -0.45221752   0.52769114
C   -0.51988249  -2.82776807   1.66978458
H    0.09690801  -2.03140077   2.03071225
H   -0.07808890  -3.76698509   1.92976325
H   -1.49111379  -2.75561748   2.11295853
C   -0.64560543  -2.72601398   0.13830169
N   -0.73921188  -2.65025344  -1.00195693
