24
Energy:    -71.19158947
C   -0.99367073  -2.55950964   1.64816979
H   -0.82479196  -2.58114093   2.70453726
H   -0.08005672  -2.77915400   1.13634473
H   -1.73167303  -3.28996231   1.38992457
C   -1.48948039  -1.16094475   1.23611512
N   -1.85863322  -0.11964963   0.92932169
C   -1.75423870   1.31700450  -2.27611657
H   -1.01837572   1.96833973  -2.69939930
H   -1.96684825   1.62309697  -1.27311923
H   -2.64948161   1.36282105  -2.86035973
C   -1.21885098  -0.12691984  -2.26959883
N   -0.82023048  -1.20198715  -2.26474607
C    0.31701740   2.14886450   2.09459736
H    0.51322376   1.14616014   2.41238221
H   -0.72293014   2.36625232   2.22168301
H    0.89793932   2.82918540   2.68161719
C    0.69528131   2.29998002   0.60944399
N    0.97691599   2.41249239  -0.49632019
C    2.36233502  -0.95909647  -1.34132461
H    1.98697305  -0.06015832  -1.78394609
H    1.84302587  -1.80116941  -1.74891542
H    3.40789112  -1.04974022  -1.54987973
C    2.14517303  -0.91048055   0.18251172
N    1.98348606  -0.87428378   1.31707714
