24
Energy:    -71.05390330
C   -0.78760355   1.96189119   2.07164247
H   -0.90352125   1.93516974   3.13500940
H   -1.41875329   1.22204108   1.62535679
H   -1.06047774   2.93025124   1.70733821
C    0.68035256   1.67146611   1.70783190
N    1.77331261   1.45523144   1.43695840
C   -2.20758757  -1.65984961  -1.41963301
H   -1.26866893  -2.07030756  -1.11164561
H   -2.39629207  -1.92631297  -2.43859669
H   -2.98763034  -2.04869150  -0.79896051
C   -2.16465658  -0.12594457  -1.28966284
N   -2.13269250   1.01611746  -1.19289414
C    1.84730269  -2.03578111   1.22503324
H    2.02249592  -2.18058866   0.17945288
H    2.13067169  -2.91822437   1.75972473
H    2.42746509  -1.20653366   1.57239379
C    0.35231303  -1.75080377   1.46039219
N   -0.76077473  -1.53862518   1.63562763
C    1.08927035   1.73197253  -1.82146467
H    0.20915884   1.94099275  -1.24996274
H    1.00497785   2.18788954  -2.78579530
H    1.94550081   2.12541963  -1.31454469
C    1.24495967   0.20868757  -1.98567114
N    1.36087745  -0.92546732  -2.10793032
