24
Energy:    -70.96784851
C   -1.81834185  -1.45046765   2.10678032
H   -1.71296381  -1.63794418   3.15494452
H   -0.96933909  -1.84296219   1.58712519
H   -2.70735780  -1.92505559   1.74717495
C   -1.91241854   0.06731170   1.86368480
N   -1.98246292   1.19736741   1.68268914
C   -1.79305706   1.10473921  -1.98145003
H   -1.02854864   1.48185091  -2.62814456
H   -1.89195227   1.74873519  -1.13269329
H   -2.72200105   1.06760581  -2.51115115
C   -1.41405694  -0.31145072  -1.50989410
N   -1.13187412  -1.36586849  -1.15879926
C    1.42653915   1.92152700   1.50370474
H    2.25690429   2.50453859   1.84354501
H    1.53645448   0.91267830   1.84288318
H    0.51885906   2.33216511   1.89407929
C    1.37961889   1.94340224  -0.03542487
N    1.34468463   1.95968935  -1.18137683
C    2.12375769  -1.60667243  -1.70687014
H    1.96961500  -0.60437508  -2.04825005
H    1.36055546  -2.24104186  -2.10686623
H    3.08219696  -1.95160878  -2.03445548
C    2.06461241  -1.63976314  -0.16836215
N    2.02057606  -1.66440068   0.97712699
