24
Energy:    -71.43393012
C   -2.28295902  -1.90269484   1.26550503
H   -1.72483912  -1.83479700   2.17588530
H   -2.99527712  -2.69743322   1.34227052
H   -2.79566848  -0.97973718   1.09178902
C   -1.32310884  -2.18495742   0.09477215
N   -0.60845674  -2.39511473  -0.77689168
C    0.16780394   2.21298577   1.95406366
H    0.69682848   2.62295243   1.11922203
H    0.44216472   2.74007792   2.84389461
H   -0.88530177   2.31084385   1.79191785
C    0.52721524   0.72347646   2.10828919
N    0.79481330  -0.38553093   2.22311710
C    2.84842705  -0.78492022  -0.47579574
H    3.70391085  -0.69528940   0.16061133
H    3.11814115  -1.31915074  -1.36278568
H    2.07499710  -1.31570018   0.03896426
C    2.34214324   0.61889984  -0.85601399
N    1.96519193   1.66410769  -1.13910377
C   -0.77272260   0.47555510  -2.71876290
H   -1.50958972   0.22386140  -3.45264117
H   -0.12538026  -0.36177921  -2.56154251
H   -0.19857361   1.31081168  -3.06168924
C   -1.47022044   0.84079690  -1.39524667
N   -1.98953928   1.11273603  -0.40982868
