24
Energy:    -70.77630737
C   -1.37107362  -2.64090198   0.68797554
H   -2.37428770  -2.99830211   0.58440504
H   -0.72983119  -3.45245635   0.96199511
H   -1.04279190  -2.22516602  -0.24169850
C   -1.32258525  -1.55682840   1.78069387
N   -1.28648345  -0.74968634   2.59427234
C   -1.85272380   2.30810682   0.45072541
H   -1.03199024   2.97536605   0.28928893
H   -1.81796732   1.93598297   1.45332948
H   -2.77331283   2.83108607   0.29610449
C   -1.75902973   1.13063126  -0.53739034
N   -1.68927024   0.25394718  -1.27308742
C    1.69142651   0.64014851   1.72450060
H    1.22081881   1.36521915   1.09386510
H    2.64909657   1.00399812   2.03333812
H    1.08093890   0.46686326   2.58599708
C    1.86906694  -0.67768377   0.94773683
N    2.00132832  -1.65886981   0.36940089
C    1.37302459  -0.27368941  -2.90407152
H    0.45338459  -0.75076178  -2.63655627
H    2.19181499  -0.92272941  -2.67335862
H    1.37200522  -0.05964141  -3.95244240
C    1.51964000   1.03900381  -2.11227583
N    1.62880183   2.01636359  -1.52274794
