24
Energy:    -74.15446761
C    2.77357908  -0.37030422   1.50028979
H    3.50837758  -1.11100831   1.26295290
H    3.15417967   0.27871840   2.26108670
H    2.54730542   0.20111111   0.62439948
C    1.49390084  -1.06076360   2.00752687
N    0.54112222  -1.57484198   2.38518793
C   -1.18259501  -2.37719026  -0.65220258
H   -1.18342810  -2.49310149   0.41150042
H   -1.31701942  -3.33242964  -1.11517870
H   -1.98079275  -1.72557198  -0.94060003
C    0.16088512  -1.77337624  -1.10172427
N    1.16116715  -1.32380926  -1.43641361
C    0.41030610   1.90476504  -2.50684953
H    0.35531041   2.97311995  -2.48463572
H    0.70966702   1.58324500  -3.48250674
H    1.12598687   1.56939253  -1.78558300
C   -0.97144496   1.31256578  -2.17268780
N   -2.00022142   0.87164651  -1.92388920
C   -2.00323611   0.84178303   1.65936961
H   -2.54200412   1.47253122   2.33522901
H   -1.79499548  -0.09419724   2.13421262
H   -2.59238266   0.67342636   0.78218008
C   -0.67959078   1.52339799   1.26571483
N    0.30592333   2.03089132   0.97262094
