24
Energy:    -71.79606850
C   -2.60143165  -0.91315016   0.69785618
H   -2.82021010  -0.87596388  -0.34887844
H   -3.51033129  -0.82497602   1.25555309
H   -2.12907737  -1.84459808   0.93063353
C   -1.65825355   0.24701532   1.06668016
N   -0.95601458   1.11081125   1.34128639
C    0.30382002   3.04563026  -1.17751413
H    0.37231372   3.91388629  -1.79907689
H    1.27447090   2.60942217  -1.06589660
H   -0.07474653   3.32410212  -0.21624420
C   -0.64692022   2.02301106  -1.82708550
N   -1.35478955   1.26162458  -2.31072090
C    2.13595255  -0.33996240   2.29154872
H    1.71097351   0.58370153   1.95817516
H    3.03853769  -0.53319025   1.75034436
H    2.35388260  -0.27548866   3.33713407
C    1.13489866  -1.48404038   2.04542541
N    0.38956853  -2.33585844   1.86217542
C    0.13175430  -1.79746015  -1.75393526
H   -0.36438128  -2.11527124  -0.86076911
H    0.57568283  -2.64348914  -2.23566287
H   -0.57765022  -1.34301431  -2.41357403
C    1.22790755  -0.77646090  -1.39671183
N    2.04404348  -0.01628056  -1.13074274
