24
Energy:    -71.26272939
C    1.40191751   2.07434741   1.38032637
H    0.43494185   2.34627930   1.74898790
H    2.13008437   2.76996571   1.74197162
H    1.64928761   1.09026049   1.71985556
C    1.38959559   2.09814796  -0.15944040
N    1.38042137   2.11586856  -1.30586674
C   -1.71717295   1.15650596  -2.38283707
H   -2.55947546   1.68335033  -2.78015519
H   -1.71805659   0.15224144  -2.75209455
H   -0.81517485   1.64666733  -2.68456601
C   -1.80181836   1.13816811  -0.84527443
N   -1.86484072   1.12451474   0.29951084
C    2.32281199  -1.31749779  -0.62142890
H    2.77954630  -0.61309915  -1.28484167
H    2.89234476  -2.22331253  -0.61584473
H    2.29286705  -0.90891736   0.36703678
C    0.88885037  -1.61566012  -1.09730000
N   -0.17879923  -1.83765553  -1.45160766
C   -1.98454615  -1.90144295   1.64930363
H   -2.63028128  -1.27722011   2.23091533
H   -2.22755612  -2.92846102   1.82559637
H   -2.11269723  -1.67778833   0.61081675
C   -0.52097320  -1.64361394   2.05313333
N    0.56872338  -1.45164851   2.35380289
