24
Energy:    -72.38844029
C   -0.28680523  -1.95109673   2.13387439
H    0.66846695  -1.47277627   2.19358022
H   -0.25031645  -2.88651907   2.65209510
H   -1.02851315  -1.32363733   2.58227506
C   -0.64669531  -2.19628464   0.65672782
N   -0.91464984  -2.37883818  -0.44307496
C   -2.64592706   0.61297113  -0.85848821
H   -3.36627222   1.38843052  -0.70143486
H   -2.38741988   0.17070929   0.08091458
H   -3.06082507  -0.13418348  -1.50231949
C   -1.38408036   1.20876090  -1.50993080
N   -0.44457813   1.65235347  -1.99495942
C    1.43163878   2.22159900   1.43806296
H    1.50209668   3.25877299   1.69145196
H    1.58187760   2.10056123   0.38560049
H    2.17996354   1.67269974   1.97062164
C    0.03696975   1.69305139   1.82164571
N   -1.00142473   1.29952366   2.10724050
C    1.51507897  -0.90297597  -2.61381632
H    1.71607284  -0.02784251  -3.19574679
H    0.46547047  -1.11007745  -2.63198373
H    2.04979916  -1.73431023  -3.02351958
C    1.96685314  -0.66794234  -1.16045494
N    2.30321955  -0.49294911  -0.07836133
