24
Energy:    -71.71596539
C   -2.85805780   1.07313100   0.25257977
H   -2.26999901   1.28733131  -0.61529423
H   -3.37482135   1.95800573   0.56055906
H   -3.56866197   0.30718679   0.02177625
C   -1.93792921   0.59367081   1.39059615
N   -1.25285165   0.23669091   2.23790108
C    0.55733956  -0.10027971  -3.05919687
H    0.91048560  -0.64890220  -3.90725431
H    1.35923532   0.03729123  -2.36426053
H    0.19396810   0.85429146  -3.37802935
C   -0.58207596  -0.88254309  -2.37993529
N   -1.43042261  -1.46497373  -1.87419417
C    0.47555016  -2.68208403   1.58504005
H    0.27312071  -2.06358877   2.43438457
H    1.01638242  -3.55092761   1.89730659
H   -0.44724110  -2.97985764   1.13261740
C    1.31663417  -1.89319678   0.56433706
N    1.94285945  -1.30583436  -0.19562271
C    1.92820163   1.74134600   1.35009903
H    2.64186146   1.01481631   1.02185456
H    1.34307206   1.33188100   2.14688061
H    2.44125100   2.61412506   1.69641701
C    1.00480491   2.12018043   0.17731474
N    0.31729408   2.40223988  -0.69587647
