24
Energy:    -71.18652953
C    3.12290121  -0.37579095  -1.07473718
H    4.02981832  -0.88235341  -1.33124450
H    3.31717222   0.33042813  -0.29472918
H    2.74548844   0.13726289  -1.93452463
C    2.08120390  -1.40156303  -0.59073476
N    1.30561290  -2.16529698  -0.23037296
C   -1.01584083   2.94218728   0.25094655
H   -0.29655355   3.27226357   0.97106851
H   -1.81609406   2.43812223   0.75135866
H   -1.40283637   3.78692913  -0.27966137
C   -0.34232492   1.97680255  -0.74203312
N    0.15913830   1.25802974  -1.48135163
C   -1.77761112  -1.68516453  -1.92084214
H   -2.56718833  -2.21283269  -2.41382725
H   -1.06660110  -2.38581308  -1.53554295
H   -1.29421069  -1.03353601  -2.61841178
C   -2.36026937  -0.85516315  -0.76187404
N   -2.79408493  -0.23718939   0.10103040
C   -0.36919366  -0.85433007   2.60703801
H    0.07494461  -1.68298820   3.11788738
H   -0.76625671  -1.18435641   1.66984932
H   -1.15774927  -0.44770738   3.20514931
C    0.69798573   0.22807864   2.35981431
N    1.49254929   1.03398112   2.17574503
