24
Energy:    -71.61347651
C   -2.55021902   1.61839716  -1.30299201
H   -3.23483137   1.93741038  -2.06090802
H   -1.93006143   2.44087488  -1.01345088
H   -3.09728623   1.26764020  -0.45294136
C   -1.67008295   0.48032933  -1.85232078
N   -1.01478164  -0.36701391  -2.26132101
C    2.37796713   0.24434402  -1.58505596
H    1.74031854  -0.58052734  -1.82566287
H    3.12239461  -0.07268861  -0.88490088
H    2.85375792   0.59892187  -2.47544732
C    1.53950081   1.37750713  -0.96496276
N    0.91522452   2.22119858  -0.50327518
C    0.13212666   1.21567363   2.55208282
H   -0.01621466   1.32535138   3.60605902
H    0.02854363   2.16844327   2.07626809
H    1.11309259   0.82993869   2.36819839
C   -0.91715010   0.24171186   1.98461763
N   -1.69838433  -0.48344696   1.56211400
C   -0.00932609  -3.01844431   0.29003690
H    0.38019424  -3.90807414  -0.15910991
H   -0.49156911  -2.42339155  -0.45712638
H   -0.71726819  -3.28201775   1.04782719
C    1.14303472  -2.21512338   0.92117875
N    2.00101973  -1.61701443   1.39109254
