24
Energy:    -71.37521263
C    0.21469640   2.94536868  -0.81449677
H    0.15885751   2.52504763   0.16790458
H   -0.40405287   3.81684444  -0.86527520
H    1.22764887   3.21406907  -1.03042844
C   -0.27229615   1.90931363  -1.84455899
N   -0.63488423   1.13792354  -2.61148714
C    0.75141917  -0.46304983   3.05797544
H    1.62494677  -0.04417088   2.60367361
H    0.99774853  -0.83163256   4.03181717
H   -0.00314284   0.29088870   3.14230788
C    0.22566659  -1.62054873   2.18884915
N   -0.16578010  -2.48235927   1.54174511
C    1.57820004  -1.73032053  -1.89017936
H    0.66848727  -1.50719674  -2.40742073
H    1.48590804  -2.67586636  -1.39791484
H    2.38614835  -1.77019703  -2.59055675
C    1.85749678  -0.63317854  -0.84620964
N    2.06544589   0.18369355  -0.06892674
C   -2.39712325  -0.75492904  -0.41269951
H   -2.58504641  -1.67619867   0.09803265
H   -1.55776133  -0.87383090  -1.06556474
H   -3.25880075  -0.48250943  -0.98558565
C   -2.09453609   0.35006170   0.61639546
N   -1.86924620   1.17277754   1.38260345
