24
Energy:    -72.02037379
C   -0.99848233  -2.76435105   0.77455299
H   -1.07290081  -3.65958832   1.35585523
H   -0.83633468  -3.01821559  -0.25216997
H   -1.90572730  -2.20424569   0.86448428
C    0.18100992  -1.91663493   1.28619292
N    1.05919551  -1.28547175   1.66713211
C    3.21823659  -0.37596086  -0.94001368
H    2.65684991  -1.08363036  -1.51355447
H    3.48098628  -0.80899334   0.00250664
H    4.10841526  -0.11189052  -1.47175413
C    2.36685729   0.88573567  -0.70575922
N    1.73296670   1.82512609  -0.53134613
C   -1.77008635   1.23541634  -2.03607856
H   -1.80237544   1.67919726  -3.00917470
H   -1.38566579   1.94468539  -1.33318644
H   -2.75723487   0.94328815  -1.74436294
C   -0.85613486  -0.00366966  -2.06703927
N   -0.17565643  -0.92622550  -2.09009092
C   -0.44778852   1.86120935   2.13281375
H   -0.61666976   2.18993720   3.13696379
H   -0.25421803   2.70805068   1.50808236
H    0.39433583   1.20149622   2.11035789
C   -1.69535434   1.11876091   1.61905326
N   -2.62422380   0.56597431   1.23653521
