24
Energy:    -71.33632282
C    0.61470665   2.94063092  -0.37084654
H    1.46002262   2.74032613   0.25382864
H   -0.28527821   2.79272887   0.18866336
H    0.65797066   3.95256181  -0.71584391
C    0.63112118   1.98536273  -1.57865168
N    0.64334254   1.27412214  -2.47791751
C    2.41554571  -1.68466607  -0.74018332
H    3.20133359  -1.80682578  -0.02428207
H    2.27549091  -0.64321351  -0.94182736
H    2.67618832  -2.19140565  -1.64582095
C    1.11103995  -2.27843541  -0.17688706
N    0.13977611  -2.72052368   0.24251261
C   -1.02261985  -0.37329767   2.96998300
H   -1.30054322  -1.31588809   2.54668396
H   -1.78934217   0.34640613   2.77234087
H   -0.89765199  -0.48007867   4.02728141
C    0.30103110   0.10117812   2.34195362
N    1.28654939   0.45444692   1.87435721
C   -1.92824217  -0.83434965  -1.83261455
H   -2.32747164  -1.80490916  -1.62397548
H   -0.87358946  -0.91018761  -1.99649059
H   -2.39749201  -0.43629230  -2.70797391
C   -2.19619316   0.09877711  -0.63717458
N   -2.39569485   0.79353240   0.25288481
