24
Energy:    -70.90646579
C   -0.61727822  -1.61969213   2.58369514
H   -1.21039313  -0.73884353   2.71492250
H    0.40569019  -1.39707506   2.80477510
H   -0.96617558  -2.38620634   3.24371461
C   -0.73379478  -2.10465124   1.12669872
N   -0.82054665  -2.46572533   0.04189866
C   -2.50786180  -0.07262026  -1.96694985
H   -2.22323244  -1.04592888  -1.62554592
H   -3.11518983  -0.16540888  -2.84298754
H   -3.06226431   0.42643468  -1.19982463
C   -1.24548953   0.74349821  -2.30156437
N   -0.30559599   1.35113551  -2.55070009
C    0.99712669   2.83293913   0.79247580
H    1.18673168   3.04447849  -0.23912549
H    1.81441854   2.27394253   1.19800745
H    0.89097682   3.75129567   1.33122672
C   -0.29927795   2.01126943   0.91814970
N   -1.26451013   1.39949899   1.01171964
C    2.08468220  -1.11438383  -1.33792132
H    1.09920579  -0.80346192  -1.61552535
H    2.16167956  -2.17783492  -1.42760006
H    2.80043117  -0.64928955  -1.98312658
C    2.36206995  -0.70069169   0.11930716
N    2.56859774  -0.39267910   1.20428001
