24
Energy:    -71.46790285
C   -1.83969143  -1.23124072   2.07237731
H   -2.24318651  -0.30141637   2.41518712
H   -0.80574453  -1.29203439   2.34099794
H   -2.37394165  -2.04036088   2.52492606
C   -1.97815005  -1.31746727   0.54103992
N   -2.08123879  -1.38166685  -0.59911037
C   -1.55100333   1.66080047  -2.00432714
H   -1.96014963   2.49403132  -2.53651680
H   -1.76671013   1.76305377  -0.96129601
H   -1.98603144   0.75474407  -2.37135770
C   -0.02556399   1.61844643  -2.21130770
N    1.11019494   1.58691192  -2.36541414
C    2.04388132   1.49328961   1.85769030
H    2.46351964   2.42996047   2.16009988
H    2.50468182   1.17361003   0.94644557
H    2.21624174   0.76250991   2.62002356
C    0.52863471   1.65706017   1.63676737
N   -0.59953525   1.77899479   1.47228021
C    1.36505514  -2.00408603  -1.77731743
H    0.34034559  -2.06652557  -2.07893279
H    1.87057510  -2.90920484  -2.04209771
H    1.83222557  -1.17729904  -2.27034293
C    1.43992396  -1.80148015  -0.25254023
N    1.49566721  -1.65063086   0.88272571
