24
Energy:    -70.66523350
C   -0.82596384  -2.28757817   2.26015947
H    0.23748007  -2.36547192   2.34915266
H   -1.18444431  -3.04390389   1.59355445
H   -1.27494944  -2.41840617   3.22254975
C   -1.19438124  -0.89862876   1.70636514
N   -1.46868474   0.13550721   1.29404009
C   -2.08393065   1.08180484  -1.98561300
H   -2.37692719   1.46107095  -1.02894669
H   -2.87764632   1.23220600  -2.68724966
H   -1.20873965   1.59792922  -2.32110582
C   -1.77949766  -0.42335604  -1.86980596
N   -1.55283346  -1.54401673  -1.78358236
C    0.85452328   2.40228354   1.52709827
H    1.42778767   3.22257494   1.90576719
H    1.20497543   1.49051007   1.96384936
H   -0.17674608   2.54326162   1.77510586
C    1.00931924   2.33104618  -0.00344524
N    1.12457187   2.27800673  -1.14300446
C    1.97672063  -1.17396874  -1.65144248
H    1.58751753  -0.25949293  -2.04787041
H    1.30958140  -1.97694509  -1.88607693
H    2.93619738  -1.36986290  -2.08263726
C    2.11613490  -1.05250326  -0.12258349
N    2.21993517  -0.96206669   1.01572152
