24
Energy:    -70.72323237
C   -2.00924336   1.45825576   1.91456006
H   -2.58377688   1.47450148   2.81708291
H   -2.62377602   1.11996706   1.10659381
H   -1.65119629   2.44388973   1.70189350
C   -0.81319494   0.50317909   2.08455042
N    0.07731747  -0.20791891   2.21111597
C   -0.91545324  -3.00858322   0.18221320
H   -1.28213593  -3.33345245   1.13347761
H    0.09552852  -2.67358739   0.28513434
H   -0.95261996  -3.82257053  -0.51128689
C   -1.78927153  -1.85162266  -0.33690514
N   -2.43986897  -0.99021293  -0.72341234
C   -0.21410936   0.51974829  -2.74292330
H    0.11642821  -0.44806009  -2.42829329
H    0.34674894   0.82670511  -3.60089450
H   -1.25370204   0.47782114  -2.99269971
C   -0.00081633   1.53122608  -1.60142483
N    0.15799003   2.28431727  -0.75152734
C    3.12906617   1.00872977   0.67975353
H    2.90855544   0.79031844   1.70375142
H    2.64417151   1.91965913   0.39693916
H    4.18674606   1.11482223   0.55745584
C    2.62205332  -0.14067438  -0.21098103
N    2.24455920  -0.99645802  -0.87417340
