24
Energy:    -71.31854999
C    0.03793577  -2.64333803   1.22808877
H   -0.08735619  -1.64447383   1.59068003
H    0.98011500  -3.02743616   1.55924737
H   -0.75095497  -3.26080538   1.60396717
C   -0.00235839  -2.63945020  -0.31137908
N   -0.03235921  -2.63655553  -1.45758287
C    2.09840941   0.21139540  -1.83267702
H    1.73088594  -0.32381782  -2.68319068
H    2.09052385  -0.43049309  -0.97663025
H    3.09880380   0.53987781  -2.02296487
C    1.19889610   1.43277500  -1.56676784
N    0.52916755   2.34214762  -1.36878637
C    0.02905701   2.25575108   2.37124062
H   -0.90492018   1.80204232   2.62957208
H   -0.12046836   2.94802369   1.56918083
H    0.42102315   2.77403547   3.22132469
C    1.02435429   1.16645346   1.93031655
N    1.76539835   0.35542187   1.60202855
C   -2.20681618   0.12438318  -1.70653810
H   -2.23504731   1.12942611  -2.07258714
H   -3.08831984  -0.39448014  -2.02059422
H   -1.34275584  -0.37269341  -2.09540013
C   -2.14107902   0.14006672  -0.16802172
N   -2.09213472   0.15174383   0.97747365
