24
Energy:    -71.31566587
C   -0.08815609  -1.63391601   2.60786680
H    0.20958306  -2.45810322   3.22184320
H   -0.84583818  -1.07001171   3.11068773
H    0.75745615  -1.00608624   2.41900491
C   -0.64323258  -2.16290968   1.27233103
N   -1.05651225  -2.55676951   0.27796394
C   -2.80845971   0.13782840  -0.98165088
H   -3.75056587   0.41320449  -1.40768395
H   -2.82800935   0.31685635   0.07308410
H   -2.62444289  -0.90036276  -1.16384864
C   -1.68923893   0.97804693  -1.62428425
N   -0.85592817   1.60362782  -2.10275399
C    1.69919345   2.65215870   0.60523840
H    1.60938317   2.56908435  -0.45774464
H    2.52658919   2.06228932   0.94045400
H    1.86043069   3.67611070   0.87061350
C    0.40555837   2.14696826   1.27073889
N   -0.55761175   1.77083102   1.76623425
C    1.24021738  -1.19308183  -2.25578247
H    0.88127833  -0.28543686  -2.69423833
H    0.42888348  -1.88228148  -2.14789256
H    1.99067507  -1.62156870  -2.88674313
C    1.84443862  -0.89077847  -0.87190048
N    2.29430880  -0.66569988   0.15846257
