24
Energy:    -72.11094244
C    0.26881692  -2.17680290   2.18599881
H    0.09230153  -1.44267360   2.94415228
H    1.27874480  -2.09797121   1.84142613
H    0.10522184  -3.15377455   2.59055058
C   -0.69522114  -1.94074971   1.00849743
N   -1.41299130  -1.76499739   0.13179413
C   -3.02644634   1.18437936   0.10301473
H   -3.70046014   2.01334969   0.04458734
H   -2.71362408   1.04985016   1.11738311
H   -3.52007144   0.29858682  -0.23845992
C   -1.79614721   1.45978282  -0.78135904
N   -0.88013358   1.66483322  -1.43981551
C    1.93699688   2.16417324   0.39232093
H    1.51316758   3.04110612  -0.05068880
H    2.03589897   1.40114243  -0.35125251
H    2.90081236   2.39775513   0.79406501
C    1.01747373   1.66405518   1.52190453
N    0.33284695   1.29169456   2.36293086
C    0.72742295  -1.16223619  -2.78296841
H    0.48875883  -0.14589955  -3.01748804
H   -0.17268514  -1.69970872  -2.56889415
H    1.22273379  -1.61387334  -3.61698889
C    1.65352797  -1.20142272  -1.55317416
N    2.34305526  -1.23059887  -0.63753644
