24
Energy:    -70.67940379
C    1.49519424   0.56694353   2.71448323
H    2.33756319   1.16558317   2.43709305
H    1.64218755  -0.43606917   2.37205428
H    1.39161307   0.56866813   3.77945603
C    0.22032935   1.14645734   2.07379357
N   -0.72886551   1.57793172   1.59677099
C    1.76801336  -1.76603390  -1.27033156
H    2.47696453  -2.08800836  -2.00423950
H    0.77909990  -1.84396321  -1.67142541
H    1.84976120  -2.38364731  -0.40040624
C    2.05329452  -0.30156719  -0.88881890
N    2.26569931   0.78879485  -0.60476539
C   -0.76745780   2.63750984  -1.82926570
H   -0.80581578   3.31764888  -2.65439583
H    0.21061130   2.65741722  -1.39581024
H   -1.48921909   2.92721730  -1.09439883
C   -1.08114316   1.21300161  -2.32320679
N   -1.31469617   0.15239049  -2.69096838
C   -2.50955278  -1.48357956   0.44653578
H   -2.65601641  -1.90468813  -0.52614924
H   -2.50080688  -0.41598493   0.37537187
H   -3.30542440  -1.79150174   1.09203667
C   -1.16587964  -1.97085932   1.01986021
N   -0.16545390  -2.33366126   1.44672631
