24
Energy:    -70.86481134
C   -0.59628947   0.04019937  -2.88222612
H   -1.06309774  -0.31741795  -3.77615009
H    0.46704092  -0.00880619  -2.99097367
H   -0.89057105   1.05393311  -2.70717938
C   -1.03129067  -0.83358797  -1.69106298
N   -1.35516885  -1.48416236  -0.80418787
C    1.82227614   1.89343371   0.50487175
H    2.58213442   1.81515865  -0.24438695
H    1.69430768   0.94505612   0.98351892
H    2.11177583   2.62352826   1.23154290
C    0.49616165   2.32025643  -0.15151437
N   -0.49119086   2.63804535  -0.64022367
C    1.68373452  -2.48907143   0.96885609
H    0.82775274  -2.09208276   1.47343052
H    2.51717705  -2.50594055   1.63966759
H    1.47257670  -3.48424034   0.63726851
C    2.02008423  -1.60385856  -0.24558496
N    2.27051187  -0.94477734  -1.14979152
C   -2.88962811   0.47415754   1.40756795
H   -3.32464395  -0.47967807   1.19342072
H   -2.75650172   1.01823022   0.49588743
H   -3.53680575   1.02310580   2.05927034
C   -1.52367856   0.27383435   2.08995525
N   -0.50666702   0.12468462   2.59802361
