24
Energy:    -72.17796293
C   -1.66938320   0.22454879   2.71500654
H   -2.01554824  -0.15398120   3.65404062
H   -2.33526619  -0.08698229   1.93754444
H   -1.63832096   1.29349348   2.75094363
C   -0.25749449  -0.32076135   2.43074064
N    0.79372083  -0.72676955   2.21909175
C   -0.09549323  -2.84189423  -0.46539751
H   -0.26245766  -3.54102177   0.32722078
H    0.78174334  -2.26661324  -0.25466814
H    0.03766639  -3.37121305  -1.38571766
C   -1.30940665  -1.90182268  -0.58489524
N   -2.21322036  -1.20189669  -0.67386674
C    2.90894597   1.06114150   0.21748398
H    3.68563644   1.73925747  -0.06854193
H    3.30841430   0.31874747   0.87640374
H    2.13108430   1.59997364   0.71697396
C    2.33569483   0.37813715  -1.03809883
N    1.90888330  -0.13039064  -1.97293730
C   -1.10298847   1.53197723  -2.40434084
H   -0.69250944   0.56599388  -2.61238728
H   -0.63723012   2.26066565  -3.03440547
H   -2.15641710   1.51972686  -2.59152295
C   -0.84796506   1.89113656  -0.92868246
N   -0.65808855   2.15854700   0.17001228
