24
Energy:    -74.58346047
C    0.24231202   3.05238465  -0.79107219
H    1.10269257   2.90426679  -0.17243936
H   -0.63933679   3.03934296  -0.18491677
H    0.31908297   3.99651375  -1.28869208
C    0.16242946   1.92549177  -1.83765292
N    0.10295327   1.08646880  -2.61687984
C    1.92725568  -1.61876590  -1.16978627
H    1.33631920  -2.37493935  -0.69660981
H    2.88325718  -2.02341240  -1.42905724
H    1.43107394  -1.28047305  -2.05537123
C    2.11596610  -0.43493963  -0.20306824
N    2.25646957   0.44647283   0.51669727
C   -2.13690067  -1.30367363  -1.19883511
H   -1.67654478  -2.14142587  -0.71806091
H   -1.58179622  -1.04695259  -2.07681714
H   -3.14005200  -1.55629566  -1.47227363
C   -2.15461648  -0.10383405  -0.23360399
N   -2.16780670   0.78950106   0.48505446
C   -0.03266697  -0.12995009   3.15968964
H    0.88480781   0.38247105   2.95828261
H   -0.06228265  -0.41667570   4.19013150
H   -0.85722093   0.51755504   2.94580423
C   -0.12377920  -1.38670850   2.27433274
N   -0.19161639  -2.32242227   1.61514428
