24
Energy:    -71.33902052
C    1.46958371  -0.32064340  -2.62213985
H    2.01041524  -1.15337000  -3.02084757
H    1.52725497   0.50171112  -3.30427338
H    0.44520994  -0.59543830  -2.48055863
C    2.08252065   0.08978460  -1.27030511
N    2.53888006   0.39536690  -0.26380269
C   -3.05288116  -0.33824159  -0.22691973
H   -3.07920667  -1.22873473  -0.81956559
H   -4.05234876  -0.03336565   0.00332855
H   -2.52027466  -0.52975184   0.68112940
C   -2.34305986   0.78024300  -1.01225148
N   -1.81456563   1.61300561  -1.59696667
C    0.51143148   2.77442649   0.71145590
H    1.50841999   2.97498386   1.04415820
H   -0.09172987   3.64804256   0.84521106
H    0.52805177   2.50768860  -0.32462988
C   -0.07930710   1.61232081   1.53129633
N   -0.51913882   0.74708030   2.14170479
C    1.07999107  -2.24079158   2.12237818
H    0.38049434  -2.13971920   2.92573917
H    1.76849233  -1.42200835   2.14380550
H    1.61612172  -3.16052553   2.22986062
C    0.32418762  -2.24096667   0.78060282
N   -0.23854240  -2.24109703  -0.21840993
