13
Energy:   -593.14016422
O    1.46487636   0.21298289  -0.54976420
H    2.29730695  -0.16383986  -0.83488833
H    1.24184802   0.84618171  -1.23207605
O   -1.74245876   0.28188138  -1.79646897
H   -1.90014991  -0.22089883  -2.59557936
H   -2.32316331   1.03916449  -1.87087576
O    1.10346790   0.18899746   2.06202019
H    1.92275217   0.59756726   2.34144076
H    0.56959581   0.15446372   2.85575810
O   -0.74286048  -0.77321876   0.46733674
H   -1.20701885  -0.46240520  -0.30995587
H   -1.25888482  -1.51936359   0.77265398
H    0.59711562  -0.14970779   0.66598052
