13
Energy:   -560.97557016
O   -0.24588891  -0.69735310  -1.41711058
H   -0.77665712  -1.10296175  -2.10267500
H    0.46404692  -0.26215417  -1.88915384
O    0.52349943  -1.19705305   1.04606665
H    0.76310852  -0.63632033   1.78390006
H    1.19645687  -1.87764109   1.03341544
O   -2.02256128  -0.61255381   0.57286352
H   -2.15729468  -1.02938137   1.42394139
H   -2.69409977   0.06820696   0.53005360
O    1.58607098   2.40159504  -0.30452675
H    2.47191396   2.43400941   0.05667040
H    1.44498613   3.27378992  -0.67276990
H   -0.52658191  -0.79485025  -0.00517821
