13
Energy:   -564.93511328
O   -1.24734318  -0.50083284   1.70517611
H   -1.44738057  -1.34027365   2.11936932
H   -1.81877321   0.12710064   2.14721584
O    1.42075941  -0.14588275   1.54086792
H    1.90327795   0.26374665   0.82280702
H    2.05255614  -0.73948650   1.94669957
O   -0.16181721  -0.44108258  -2.75175466
H   -0.92812021  -0.51768255  -3.32021223
H    0.57781199  -0.36645384  -3.35475635
O   -0.07791617   1.08037648  -0.30695913
H   -0.06147746   0.58884107  -1.12815007
H   -0.14345228   1.99640224  -0.57683627
H   -0.03599707  -0.00081179   1.18919445
