13
Energy:   -571.79177402
O   -0.02699856   0.86614711   0.60104800
H   -0.87545584   1.30571242   0.65703390
H    0.31385281   1.11103811  -0.25923137
O    0.45033403   1.94753602  -1.74348314
H    1.27929492   2.26330262  -2.10313179
H   -0.20698305   2.55088386  -2.09009171
O   -1.44453666  -1.33479032   0.23125262
H   -2.11801253  -1.76169277   0.76079619
H   -1.72036412  -1.48346927  -0.67320612
O    1.13959448  -1.42251232   1.14842442
H    1.68582090  -2.04767452   0.67193646
H    1.44056086  -1.48311553   2.05505463
H    0.02057804  -0.61155470   0.69265498
