13
Energy:   -567.54275963
O   -1.55652635   1.19722917   1.12216909
H   -2.11835354   1.38925285   1.87297464
H   -1.60491632   1.98378817   0.57883199
O   -1.46432591  -1.42247431   0.69876061
H   -1.23521405  -2.20535893   1.19959118
H   -2.40572567  -1.50273828   0.54528088
O    2.44462823  -0.00971903  -2.26166115
H    2.67235735   0.75769942  -2.78648514
H    2.58653684  -0.75249404  -2.84849936
O    0.76351708   0.05239355   0.54962888
H    1.20681326  -0.09953022  -0.28502046
H    1.19138769   0.82874474   0.91079009
H   -0.65701300  -0.13208834   0.72663613
