13
Energy:   -561.03906869
O    0.50127153  -1.11681191   1.92735283
H    1.38737982  -0.86991215   2.19208751
H    0.36324394  -1.97701250   2.32388175
O    1.05485990   0.76610248  -2.70286271
H    1.21414151   0.13490224  -3.40460873
H    1.20049900   1.61987767  -3.11040292
O   -0.94867387   1.05052799   1.37357189
H   -1.53576084   1.45599203   2.01166252
H   -0.64647625   1.77777399   0.82949312
O   -0.71371198  -0.82063857  -0.41673873
H   -0.08161714  -1.24141156  -0.99952348
H   -1.34985204  -0.41470828  -1.00561755
H   -0.43685892  -0.33694433   0.99568593
