13
Energy:   -561.43321849
O   -2.55952690  -1.10304130   1.05071438
H   -2.69151122  -2.05057055   1.08234202
H   -2.83548500  -0.79337084   1.91337491
O    1.34270419   1.29227628   0.71854986
H    0.87563405   1.10614368   1.53306321
H    2.06628238   1.86109836   0.98143364
O    0.99405388   0.91383571  -1.91443119
H    1.19445097   0.31031387  -2.62985711
H    0.78061007   1.73930709  -2.34948359
O    0.14949499  -0.89594609  -0.05846869
H    0.75192920  -1.61478050   0.13279541
H   -0.71751229  -1.25062908   0.13833120
H    0.77707360   0.41991448  -0.54952970
