13
Energy:   -564.66967326
O    1.88792476   0.72002459   1.15326618
H    2.29666002   1.58555551   1.14841072
H    2.24917895   0.28836590   1.92747419
O   -0.58724848  -0.75578020   1.62112106
H   -1.52017810  -0.54830083   1.56795635
H   -0.50508857  -1.29132362   2.41021855
O   -1.54180485   0.49634444  -2.11784152
H   -1.96686577   1.35374627  -2.13826601
H   -1.88337419   0.04076047  -2.88726044
O    0.52245759  -0.49141849  -0.81083469
H   -0.09511418  -0.05408267  -1.39698683
H    0.17813420  -1.37980902  -0.71898965
H    0.91560256   0.05950551   0.36771310
