13
Energy:   -579.41306327
O   -0.17593258   2.09300832   0.90656491
H   -0.85722663   2.45521180   1.47302666
H    0.39522968   2.83626819   0.71273432
O   -0.29525151  -2.29492013  -0.61742916
H    0.04086906  -2.54135388   0.24426987
H   -0.64668281  -3.10830634  -0.97954897
O   -0.47604661   0.33204617  -1.33933622
H   -0.49561720   1.05394898  -0.71108057
H   -0.80075879   0.71447847  -2.15452907
O    0.96739431  -0.42088128   0.78623851
H    0.73299840   0.47681643   1.02167262
H    1.67193283  -0.65161389   1.39172987
H   -0.08112518  -0.88654662  -0.66572263
