13
Energy:   -570.08326299
O    0.20457501   0.71242604  -0.76242700
H    0.19648449   1.41948676  -1.40758708
H    0.52659084  -0.04900013  -1.24488720
O   -1.76457012   0.05545870   0.99398649
H   -2.22531341  -0.02600749   0.15893516
H   -2.43698882   0.34171901   1.61216121
O    0.72282723   0.88182167   1.87564400
H    1.05384374   0.76913750   2.76668957
H    1.45973951   1.25390327   1.39113660
O    0.75118770  -1.57336825  -1.93282761
H    1.58127406  -2.02863273  -1.79167974
H    0.27350684  -2.13032690  -2.54752258
H   -0.33412465   0.37415848   0.89469208
