13
Energy:   -565.49271501
O   -0.79896060  -1.13555072   2.13823441
H   -1.54520344  -0.95041468   2.70839063
H   -0.08360339  -1.34369662   2.73920962
O    1.62194954  -0.04908559  -1.30121275
H    1.86809358  -0.75617454  -1.89759365
H    2.43941977   0.42043969  -1.13532038
O   -1.07095178   0.13335041  -1.56458466
H   -1.44108235   0.64815185  -2.28167230
H   -1.52158075  -0.70952803  -1.61675085
O    0.15184420   1.05789868   0.58784911
H    0.25526075   0.42926777   1.30224400
H    0.15993424   1.91312475   1.01768021
H    0.01959008   0.38195170  -0.69957170
