13
Energy:   -581.68060456
O   -1.45976612   0.75926756   1.33391590
H   -2.00880253   0.87741788   2.10904902
H   -2.07970865   0.70623758   0.60652953
O    1.27055647   0.91558007   1.48598604
H    2.07777513   0.80109567   0.98446515
H    1.55224761   0.90126116   2.40068650
O    0.05232593   0.52891309  -0.84852438
H    0.09635076  -0.34100687  -1.24542854
H    0.13887138   1.13359603  -1.58547775
O    0.11065046  -2.01190480  -1.81871835
H   -0.57728593  -2.50262361  -2.26835200
H    0.91068930  -2.50891567  -1.98945178
H   -0.07848574   0.71777301   0.84821923
