13
Energy:   -563.38193119
O    1.30091428   0.83013366   1.10948283
H    0.90438976   1.22290448   1.88712750
H    2.09028694   0.39756435   1.43506914
O   -0.16612024  -0.39386557  -0.77924535
H    0.02845114  -0.84739737  -1.59941773
H   -0.85225740  -0.92130570  -0.37027769
O   -1.50482339  -2.61588410   0.68978164
H   -1.31950168  -3.51278269   0.41146412
H   -2.45810523  -2.58135014   0.76911000
O    0.40323857   2.28180086  -0.87355752
H   -0.15099671   2.77721994  -1.47656252
H    1.29670390   2.53428780  -1.10637052
H    0.46213048   0.87181263  -0.19918539
