13
Energy:   -568.65036124
O   -0.25881687   2.11514847   0.19535245
H   -1.02158585   2.49392326   0.63232497
H    0.46113284   2.70711283   0.41325718
O   -1.16658903  -0.30388275  -0.29127638
H   -1.65317652  -0.69128015  -1.01886673
H   -1.32541834  -0.89443840   0.44509929
O    0.39090002  -2.30311924   1.61935861
H    1.29141518  -2.50700922   1.87181290
H   -0.14068851  -2.62031736   2.34944822
O    0.94640761   0.53249294  -1.62325480
H    1.15371983   0.99097645  -2.43753139
H    1.52274851  -0.23174581  -1.62471940
H   -0.17139218   0.77826893  -0.53749439
