13
Energy:   -565.75661076
O    1.13327334   0.36409813  -0.09728684
H    1.73557316   0.25553486  -0.83327650
H    1.06708692   1.31166567   0.02089506
O    1.07789263  -1.93465557   1.26164873
H    0.99407087  -2.88562933   1.19197329
H    2.01303729  -1.78577334   1.40154299
O   -1.12464532   2.02612076  -1.53872381
H   -0.72899182   2.31729297  -2.36025220
H   -1.91143224   2.56359790  -1.44752895
O   -1.19763861  -0.71608187   0.55564992
H   -1.81164503  -0.57694780   1.27666981
H   -1.40838305  -0.02775307  -0.07524000
H    0.25095907  -0.86767837   0.61469225
