13
Energy:   -561.84043114
O   -0.16683563   0.60362107  -0.99296243
H    0.50103531   1.25851084  -0.78973924
H   -0.99036030   1.09149809  -0.98909095
O    0.19380251  -1.88654091  -1.77946280
H    0.32182031  -2.82775866  -1.89758328
H    0.14092647  -1.53798845  -2.66937693
O    0.15911273   2.56049450   1.80782167
H    0.72188309   2.62020104   2.57980386
H   -0.56127706   3.16427167   1.98871810
O   -0.08630782  -1.30860129   0.76385557
H    0.54782887  -1.79144155   1.29391951
H   -0.83048200  -1.16765977   1.34915218
H   -0.00634847  -0.85916635  -0.62653687
