13
Energy:   -562.40521545
O   -0.29670207  -0.58259557  -0.40541790
H   -0.64596561   0.02289112  -1.05935421
H   -0.16055565  -1.40031616  -0.88398768
O   -0.17626888   1.22752261  -2.87247887
H    0.40136431   1.97542218  -3.02485338
H   -0.66885378   1.13467938  -3.68793708
O    1.58332182  -0.20881286   1.39847880
H    2.15530815  -0.16268137   0.63236173
H    2.03174567  -0.80608708   1.99715351
O   -1.06393646  -0.38109988   2.15939448
H   -1.83657059  -0.91199402   1.96595259
H   -1.40276207   0.36375486   2.65600345
H    0.06151057  -0.33922075   1.09620235
