13
Energy:   -576.50178920
O    1.94631754  -0.42138492  -1.64353357
H    2.17364864  -0.86397007  -2.46125651
H    2.70663968   0.12609637  -1.44755823
O    0.11507553   0.32537342   1.87774831
H   -0.26581709   0.49650835   2.73906445
H    1.05919487   0.30055271   2.03348673
O   -1.76706038  -0.86480433   0.53703423
H   -2.42652896  -1.04684497  -0.13243887
H   -1.59004157  -1.71610120   0.93727144
O   -0.44403801   1.04515696  -0.62776210
H    0.17372686   0.68128502  -1.26195106
H   -0.97499834   1.65914910  -1.13503582
H   -0.70429744   0.26274573   0.57142652
