13
Energy:   -571.88333690
O   -0.49487069  -0.37431262  -3.38595339
H   -0.95154577   0.22939830  -3.97179709
H   -0.03817159  -0.97793049  -3.97187424
O    0.90194378   0.68217548   0.76257019
H    0.83514532   0.63175270   1.71610433
H    1.65488693   1.25167452   0.60452174
O   -0.90181743  -0.68234872  -0.76257046
H   -1.65469125  -1.25193973  -0.60452320
H   -0.83510163  -0.63181468  -1.71610450
O    0.49475837   0.37446390   3.38595386
H    0.95134328  -0.22921302   3.97190287
H    0.03805770   0.97818279   3.97176940
H    0.00006237  -0.00008620   0.00000043
