13
Energy:   -564.54141099
O   -1.60392986  -0.20688952   0.55516696
H   -1.96054962   0.26253311   1.30928669
H   -2.35837558  -0.65493518   0.17267698
O    1.66283349  -1.59531575   0.68126551
H    1.13271852  -2.29772292   1.05787423
H    2.53726598  -1.97484047   0.59431348
O   -0.63821530   0.99406254  -1.76607904
H   -1.20870046   0.34390921  -2.17605364
H   -0.55973314   1.68998271  -2.41858767
O    0.76554390   0.96801972   0.52863552
H    1.16809894   0.12432849   0.73446649
H    1.15049664   1.57758437   1.15829747
H   -0.21336094   0.76928285  -0.48584707
