13
Energy:   -594.95771570
O    0.42925775   0.74625855  -1.19881986
H    0.46078287   1.14260942  -2.06953451
H    0.60896727   1.47020032  -0.59894932
O    0.13669045  -0.90425659   0.83032800
H    0.10065535  -0.10349043   1.35349801
H    0.22537046  -1.60745220   1.47366589
O   -0.57989370  -1.66809909  -1.59286823
H   -1.48434289  -1.97942377  -1.55708478
H   -0.15823111  -2.22996422  -2.24305287
O    0.11338036   1.63177225   1.84155520
H   -0.67974440   2.15247446   1.96826028
H    0.75408368   2.02181906   2.43619340
H    0.02112357  -0.63883207  -0.65173197
