72
Energy:   -317.11041970
C    2.86965769  -3.44731184   0.18144277
H    3.20411231  -2.43737787   0.06710264
H    3.24173631  -4.04004755  -0.62795266
H    3.23285135  -3.84057938   1.10790384
C    1.33004789  -3.48175424   0.17752009
N    0.18373842  -3.50739818   0.17459948
C    3.32523545   2.86866851   0.97278309
H    2.32071373   3.22879798   0.89440537
H    3.92678887   3.32141995   0.21248794
H    3.71960838   3.11852939   1.93555960
C    3.33760636   1.33911204   0.79416629
N    3.34681707   0.20028772   0.66117796
C   -0.60311803  -3.24494970  -3.38118896
H   -1.02858970  -3.63992555  -2.48237412
H   -0.87264916  -3.86892226  -4.20757283
H   -0.97371831  -2.25482133  -3.54611421
C    0.93055656  -3.20347031  -3.24806609
N    2.07244701  -3.17258702  -3.14895006
C    0.16234450   3.75685319  -2.97282809
H   -0.68113117   4.27947328  -3.37322441
H    0.22504785   2.78620925  -3.41871789
H    1.05589471   4.30558692  -3.18580321
C    0.00002836   3.61190599  -1.44828102
N   -0.12082339   3.50398622  -0.31318642
C   -2.99351749  -2.13628129   1.13060719
H   -2.05495917  -2.56277749   1.41715466
H   -3.79080116  -2.72984232   1.52674246
H   -3.06507248  -1.14042326   1.51537435
C   -3.09386187  -2.10145247  -0.40572544
N   -3.16857282  -2.07552083  -1.54959492
C    0.04743639   0.03672496   0.06103565
H    0.41058590   0.96426650   0.45179045
H    0.69099752  -0.75864583   0.37426635
H   -0.94261738  -0.14083123   0.42595539
C    0.02346291   0.10204620  -1.47739160
N    0.00561357   0.15068083  -2.62282062
C   -3.28496709   4.89430882   0.45419958
H   -3.74497411   4.02199475   0.86936446
H   -3.84909607   5.76062798   0.73015008
H   -2.28696837   4.98412547   0.82947364
C   -3.24734885   4.77366794  -1.08060681
N   -3.21934036   4.68384533  -2.22333993
C    2.24764929  -1.17970208   3.58978959
H    2.51349463  -1.73559361   4.46455301
H    2.55573458  -0.16171762   3.70679467
H    2.73406592  -1.60369950   2.73625333
C    0.72153918  -1.23453124   3.39083813
N   -0.41471917  -1.27535404   3.24270974
C   -0.84552689  -4.85177795   3.24909430
H   -1.32674058  -3.97010172   3.61784979
H   -1.15897351  -5.69686752   3.82569981
H   -1.11188711  -5.00109656   2.22359185
C    0.68155225  -4.68952790   3.36443830
N    1.81853208  -4.56872536   3.45031715
C   -3.23629545   1.27356190  -2.71364243
H   -3.01215236   0.27893901  -3.03827355
H   -2.48048949   1.94313198  -3.06766551
H   -4.18719263   1.57044932  -3.10422085
C   -3.27810849   1.31409908  -1.17474399
N   -3.30924020   1.34428084  -0.02896415
C    3.42060022  -0.12142901  -2.97202081
H    2.66716122  -0.40749549  -3.67586441
H    3.29199130  -0.67668993  -2.06645791
H    4.38760829  -0.32625043  -3.38170688
C    3.29832092   1.38424591  -2.67270357
N    3.20727843   2.50528932  -2.44984828
C   -1.48200655   2.15413189   2.74772042
H   -2.03545666   2.71296770   3.47318283
H   -1.82879691   1.14194795   2.73680234
H   -1.62126777   2.58932065   1.78018947
C    0.01410145   2.18026785   3.11183271
N    1.12802186   2.19972727   3.38293086
