72
Energy:   -316.82789728
C   -0.75658757   4.72899135   1.26204110
H   -0.76533814   4.55637984   0.20609182
H    0.11900202   5.28479114   1.52534427
H   -1.62823846   5.28385699   1.53997621
C   -0.74966205   3.37889253   2.00284149
N   -0.74450569   2.37368259   2.55440105
C    2.80255196   1.37455041   2.34032149
H    2.81212164   0.45453001   1.79408797
H    2.02689515   1.34406169   3.07674937
H    3.74744613   1.51258877   2.82304244
C    2.54520306   2.54390305   1.37182474
N    2.35359509   3.41453924   0.65073489
C    0.03770828   1.17215660  -0.93669642
H   -0.36075275   0.28676341  -1.38637173
H   -0.40097698   1.30991710   0.02946939
H    1.09850784   1.07472262  -0.83614780
C   -0.28418579   2.38842304  -1.82477307
N   -0.52385056   3.29398870  -2.48598650
C   -0.33709905  -0.89735918   3.84763806
H   -0.53590016   0.12860958   4.07734746
H    0.43914550  -1.26215593   4.48737771
H   -1.22487579  -1.47520160   3.99879918
C    0.10954972  -1.01729170   2.37871972
N    0.44210003  -1.10658690   1.28504325
C   -3.45497056   0.46057925   1.51488786
H   -2.50867258   0.29598153   1.98640446
H   -4.16691713  -0.24582844   1.88774083
H   -3.79206225   1.45335331   1.72858848
C   -3.30710110   0.28532312  -0.00794500
N   -3.19700556   0.15483696  -1.14176328
C   -3.98193713   3.37418595  -2.61151597
H   -4.06020261   2.33150380  -2.83864728
H   -3.14462578   3.79061970  -3.13150801
H   -4.87684389   3.87417582  -2.91819350
C   -3.78639866   3.55590417  -1.09482773
N   -3.64081138   3.69120164   0.03441560
C   -1.87582882  -3.10711473  -0.59471561
H   -1.28672418  -3.99021932  -0.72881325
H   -1.29368577  -2.24736729  -0.85325555
H   -2.73955955  -3.15552586  -1.22441768
C   -2.31842418  -3.00382187   0.87669185
N   -2.64795655  -2.92691564   1.97222159
C    1.59364967  -2.63145554  -2.05814512
H    0.90304238  -3.32079166  -2.49720942
H    1.28167808  -2.40036096  -1.06106532
H    2.56911536  -3.07052173  -2.03392404
C    1.63267247  -1.34000087  -2.89613202
N    1.66172671  -0.37845416  -3.52005137
C    3.81347869  -2.45379274   1.08193839
H    3.14026404  -1.91646408   0.44714698
H    3.83264160  -3.48338492   0.79129803
H    4.79588842  -2.03945134   0.99198605
C    3.34088779  -2.34164294   2.54333507
N    2.98902239  -2.25814231   3.63141133
C    0.26407780  -4.66730469   3.31440931
H    0.30138392  -5.67430848   3.67420343
H   -0.74052452  -4.30395510   3.37482747
H    0.90277950  -4.05110593   3.91212021
C    0.73700906  -4.62778932   1.84935827
N    1.08912789  -4.59836833   0.75856118
C    3.55088457   2.36810849  -2.53736035
H    2.87611483   3.06259590  -2.08208766
H    3.11019561   1.97548677  -3.42985154
H    4.46560675   2.86698485  -2.78088613
C    3.83979560   1.21563650  -1.55759573
N    4.05490300   0.35756871  -0.82811644
C   -1.72696083   0.33850980  -4.41320715
H   -2.25338124   0.86010722  -3.64137953
H   -2.25542862   0.44172342  -5.33785186
H   -0.74468629   0.75019566  -4.51592317
C   -1.62245126  -1.15327356  -4.04542984
N   -1.54463913  -2.26397408  -3.77160292
