72
Energy:   -316.95172519
C    1.11449311   0.66031663  -0.73427929
H    1.48946698  -0.33890491  -0.65778675
H    0.23031788   0.66431747  -1.33687140
H    0.88200214   1.02978613   0.24262364
C    2.18197753   1.56093216  -1.38310029
N    2.97676820   2.23148136  -1.86617701
C    3.97111207   2.31876943   1.94164295
H    3.89988078   2.47142786   0.88498705
H    4.80779145   1.68687214   2.15512015
H    4.10242479   3.26163049   2.43018065
C    2.68044457   1.65149887   2.45206180
N    1.71948395   1.15468560   2.83209183
C   -0.66961553  -2.32234820  -2.71785653
H   -0.47895486  -3.37418180  -2.67100807
H   -1.51973794  -2.14141381  -3.34191881
H   -0.86430113  -1.95096481  -1.73344250
C    0.55972031  -1.60341757  -3.30392148
N    1.47501672  -1.06814103  -3.74027348
C    1.56773362   5.37578523  -1.53007703
H    2.38075137   4.93115500  -2.06505953
H    1.67768510   6.44011261  -1.53419959
H    0.64391241   5.11083227  -2.00045282
C    1.56895986   4.86521789  -0.07717666
N    1.56987285   4.48507729   1.00457370
C   -1.59141206  -4.47852911   0.42742946
H   -0.83900293  -5.20723543   0.20887105
H   -1.38793393  -3.58100468  -0.11841452
H   -2.55005844  -4.85935013   0.14305023
C   -1.58744096  -4.17340284   1.93689366
N   -1.58448430  -3.94622247   3.06075838
C    1.98910446  -2.53351319   2.21238781
H    1.19370577  -2.90747498   2.82262848
H    2.02928190  -1.46729340   2.29276332
H    2.91766005  -2.95123016   2.54131963
C    1.73963215  -2.92864775   0.74499820
N    1.55388867  -3.22284339  -0.34754006
C   -3.47833444   0.27264599  -1.07671683
H   -3.92276659   0.79095121  -0.25286009
H   -3.92002675   0.61059343  -1.99082761
H   -2.42645686   0.46785533  -1.09531709
C   -3.71689544  -1.24067600  -0.92004775
N   -3.89451494  -2.36741301  -0.80340050
C   -1.11341896  -0.51525455   3.74266889
H   -1.51372700  -1.38559981   4.21927436
H   -1.73120499   0.32945783   3.96560498
H   -0.12148033  -0.33635761   4.10176878
C   -1.07577460  -0.73584062   2.21901385
N   -1.04774666  -0.90007697   1.08458341
C   -4.80574138  -2.43135979   2.67422887
H   -5.83958998  -2.57433031   2.91006078
H   -4.20152470  -2.83964237   3.45725290
H   -4.57824727  -2.92626965   1.75324583
C   -4.51481352  -0.92566451   2.53336479
N   -4.29820451   0.19539407   2.42848509
C    0.22756195   2.34619930  -4.25253804
H    0.10259314   2.91174912  -5.15222487
H    1.13085521   1.77578025  -4.31239191
H    0.28116342   3.01244652  -3.41698994
C   -0.96979160   1.39430772  -4.07408108
N   -1.86127575   0.68558118  -3.94121175
C    4.38531940  -1.41419652  -2.06963864
H    5.35890438  -1.76562979  -2.34079753
H    4.13396487  -0.56321933  -2.66760002
H    3.66735761  -2.19032027  -2.23414359
C    4.37917573  -1.01612763  -0.58198834
N    4.37460148  -0.71974724   0.52563493
C   -1.53679712   2.79560452   1.58300709
H   -1.84866838   3.71223545   2.03844560
H   -0.60642363   2.48379335   2.00971316
H   -2.27755793   2.04253284   1.75346401
C   -1.36083583   3.00897684   0.06804508
N   -1.22982465   3.16784224  -1.05991299
