72
Energy:   -319.82657200
C   -1.37864414   4.62574596   0.32485115
H   -0.56442548   3.97887846   0.57686420
H   -1.40532993   5.44845877   1.00846698
H   -1.24669146   4.99377163  -0.67116326
C   -2.70201835   3.84297695   0.41176132
N   -3.68733060   3.26016983   0.47646989
C    0.86542298  -0.94641456  -0.13477922
H    1.47456455  -1.04111228  -1.00935287
H    0.22004806  -1.79621963  -0.05590187
H    1.49112195  -0.89210455   0.73150614
C    0.01703164   0.33479989  -0.23637487
N   -0.61463428   1.28872228  -0.31201745
C   -0.99535171   1.99097409   3.18898067
H   -1.55825397   1.97139354   2.27922365
H   -0.40170218   2.88057421   3.22200996
H   -1.66524020   1.97803693   4.02323551
C   -0.07546452   0.75741389   3.25011000
N    0.60943331  -0.16102774   3.29562357
C    4.05912715  -2.43111268  -1.93998619
H    4.96732293  -2.85356577  -2.31630252
H    3.83750177  -1.52986446  -2.47246428
H    3.25927478  -3.12941919  -2.07228623
C    4.22216878  -2.11517983  -0.44158576
N    4.34356069  -1.87995346   0.67404147
C    1.78564939   3.54828358  -1.87704016
H    1.63691742   3.88063982  -2.88318046
H    2.40026651   4.25233337  -1.35602310
H    0.83921844   3.46786648  -1.38439360
C    2.47727737   2.17237170  -1.88786813
N    2.99222583   1.14794276  -1.89593005
C    1.97993234  -3.58437927   2.53868360
H    1.44232657  -2.67015477   2.68036557
H    3.02317651  -3.41405881   2.70461023
H    1.62386746  -4.31848324   3.23093229
C    1.76465793  -4.08875323   1.09963397
N    1.60437634  -4.46428256   0.02819611
C   -3.29278371   1.86890019  -2.62410362
H   -2.97588449   1.23401134  -1.82323458
H   -3.50364685   1.27445604  -3.48843687
H   -4.17526551   2.39855779  -2.33154971
C   -2.17528030   2.87591154  -2.95382210
N   -1.34324822   3.62567726  -3.19931249
C    0.17579463   0.48812380  -4.10245652
H    0.84996737   1.08470805  -4.68079770
H    0.00632194   0.95749747  -3.15595429
H   -0.75329091   0.39227813  -4.62448407
C    0.78659356  -0.90811514  -3.88100337
N    1.24136113  -1.94767849  -3.71612144
C   -1.60632663  -2.66661370   4.27130734
H   -0.67262818  -2.26706359   4.60815610
H   -1.73845081  -3.65021433   4.67127245
H   -2.40462084  -2.03631012   4.60348629
C   -1.61104749  -2.73318364   2.73275408
N   -1.61456239  -2.78274799   1.58723123
C   -3.88723742  -0.23093683   0.59592835
H   -4.37451491  -1.15177892   0.35198023
H   -2.91209921  -0.21588782   0.15572603
H   -4.46222264   0.58810629   0.21716792
C   -3.76184307  -0.10608152   2.12572814
N   -3.66848128  -0.01312107   3.26473362
C   -1.19423115  -3.82820416  -1.84942382
H   -1.73457074  -4.56736741  -2.40311236
H   -1.25928458  -4.04734811  -0.80412814
H   -0.16797287  -3.83534579  -2.15214819
C   -1.79996359  -2.43867707  -2.12127432
N   -2.25095892  -1.40411100  -2.32367938
C    3.61759869   1.19392815   1.74884111
H    4.45189763   1.50649374   2.34141871
H    3.95740359   0.91583032   0.77308842
H    3.14401258   0.35483641   2.21418008
C    2.60937503   2.35198723   1.63058633
N    1.85870668   3.21421486   1.54254027
