72
Energy:   -316.96965592
C    0.56723993  -0.03331077   0.80423645
H    0.42385819   0.95548986   1.18714007
H    1.61045909  -0.27107067   0.81217992
H    0.03727899  -0.73305838   1.41611370
C    0.03489334  -0.10713463  -0.63893962
N   -0.36146289  -0.16209985  -1.71344979
C    4.32631590   1.41347494   1.86801353
H    4.42944252   1.07678245   2.87841110
H    5.21032202   1.94076690   1.57578850
H    4.18432595   0.57085742   1.22401535
C    3.10993990   2.35189522   1.76125770
N    2.20429268   3.05059177   1.68177313
C   -1.14163910  -1.84574022  -4.50995680
H   -0.82679001  -0.94938635  -5.00221686
H   -1.29457650  -2.61657904  -5.23612260
H   -0.38865809  -2.15447968  -3.81526360
C   -2.45840301  -1.58203359  -3.75617194
N   -3.43879359  -1.38569202  -3.19494485
C    1.34561456   3.56256630  -1.61641090
H    1.59618684   4.60024771  -1.54339714
H    1.37072437   3.26094001  -2.64271016
H    2.05190355   2.98491476  -1.05750693
C   -0.06769228   3.33458317  -1.04879530
N   -1.11996347   3.16483937  -0.62617968
C   -1.57890421  -3.36654384  -0.68508839
H   -2.31073609  -4.14432150  -0.61887503
H   -1.13749719  -3.37417895  -1.65976815
H   -2.04767021  -2.42016764  -0.51324656
C   -0.48623497  -3.59821129   0.37510221
N    0.32730695  -3.77069823   1.16446231
C    3.38769766  -2.81331868  -0.21328798
H    2.98767865  -3.36551463   0.61131169
H    3.49687392  -1.78589396   0.06488120
H    4.34315046  -3.21385901  -0.48082580
C    2.43115432  -2.92081439  -1.41539841
N    1.71896433  -3.00084983  -2.31042428
C   -3.61088251   0.65293399  -0.16493644
H   -4.42877049   0.95288316  -0.78621731
H   -3.63421458  -0.40857383  -0.03243796
H   -2.68866361   0.93427105  -0.62889858
C   -3.72746049   1.34409534   1.20630590
N   -3.81425810   1.85869637   2.22725816
C    0.86839550  -2.30516932   4.17346237
H    0.04405112  -2.28354831   3.49163464
H    0.66574616  -1.65506288   4.99880712
H    1.00868921  -3.30353475   4.53190795
C    2.14458294  -1.83505396   3.45101018
N    3.09476250  -1.48503170   2.91311169
C   -3.07788640  -0.66416736   4.63004181
H   -3.44721374   0.33463741   4.52570335
H   -2.21026061  -0.66002346   5.25622662
H   -3.83359469  -1.27955393   5.07174697
C   -2.70740797  -1.22196809   3.24324547
N   -2.43156994  -1.63727608   2.21071256
C   -2.51333140   2.07533254  -3.59424321
H   -2.60893344   1.26339326  -2.90394252
H   -3.25271576   1.97987732  -4.36177052
H   -2.65355604   3.00152005  -3.07712347
C   -1.10975401   2.04828459  -4.22736161
N   -0.06472684   2.02814616  -4.69874704
C    2.47058752  -0.00635854  -3.87284642
H    1.43888511  -0.28442465  -3.81654746
H    3.03878659  -0.82217165  -4.26844456
H    2.57613357   0.84502675  -4.51230104
C    2.98577933   0.34265204  -2.46417009
N    3.36936306   0.60250629  -1.41534653
C   -0.88517638   3.28237973   3.08608080
H   -1.17166922   3.13564457   2.06564422
H   -0.06875537   3.97251169   3.13161890
H   -1.71471930   3.67441162   3.63659750
C   -0.45395434   1.93605930   3.69687442
N   -0.13288992   0.93366254   4.15163803
