72
Energy:   -319.13621730
C    0.26608723   0.35084753   1.11810712
H    0.10717037   1.40752268   1.17363407
H    1.21251015   0.10906896   1.55482885
H   -0.51203436  -0.15530802   1.65030298
C    0.25258060  -0.09350955  -0.35632984
N    0.24252429  -0.42435360  -1.45411518
C    3.43801655   1.50998548   3.27190434
H    4.39147205   1.86306117   3.60531152
H    3.56099749   0.57582952   2.76482700
H    2.79262228   1.37602948   4.11476916
C    2.81763695   2.53910502   2.30876254
N    2.35573614   3.30533129   1.59165969
C    1.09102196  -2.08964065  -4.60580473
H    1.50029073  -1.38824123  -5.30253862
H    1.52702605  -3.05264561  -4.77139754
H    1.30544286  -1.76782126  -3.60812991
C   -0.43414763  -2.17630375  -4.80060521
N   -1.56970572  -2.24082836  -4.94564302
C    1.86747888   3.34177340  -1.68930245
H    2.24290897   4.31863811  -1.46639491
H    1.97290921   3.14956185  -2.73660292
H    2.42041217   2.61219034  -1.13534177
C    0.37958611   3.26251348  -1.30008150
N   -0.72821769   3.20350087  -1.01028880
C   -1.42230205  -3.47749310  -1.66863498
H   -1.71721749  -4.10197030  -2.48591907
H   -1.32481859  -4.07078121  -0.78353313
H   -0.48377574  -3.01539504  -1.89343008
C   -2.48892581  -2.38989519  -1.44270455
N   -3.28307567  -1.58012911  -1.27448908
C    2.12527974  -2.99329091   1.02948115
H    1.10766785  -2.77540430   1.27826148
H    2.74897927  -2.17861875   1.33313761
H    2.43272501  -3.88525501   1.53423510
C    2.24972793  -3.19564252  -0.49208596
N    2.34238526  -3.34630249  -1.62496184
C   -3.50410463   1.55730880  -0.35750033
H   -3.57688895   2.61487601  -0.50294527
H   -4.42810545   1.09467201  -0.63514901
H   -2.71359342   1.16742667  -0.96411639
C   -3.20722386   1.26219202   1.12451448
N   -2.98618264   1.04246416   2.22794187
C   -0.82718035  -0.88534897   4.80078303
H   -1.35990004  -0.32711148   4.05951330
H   -0.79063487  -0.32482107   5.71148165
H   -1.32685928  -1.81547005   4.97426169
C    0.60610626  -1.15685625   4.30725160
N    1.67325330  -1.35900576   3.93979502
C   -4.12617223  -2.16368237   2.15358133
H   -4.52033906  -1.81075089   1.22354259
H   -4.25625179  -1.41230390   2.90418695
H   -4.64405626  -3.05321818   2.44585050
C   -2.62628079  -2.47279714   1.99118147
N   -1.50954343  -2.70294714   1.87026740
C   -1.80125503   1.06028671  -3.81921018
H   -1.87338067   0.22676262  -3.15217521
H   -2.37804095   0.86412602  -4.69883400
H   -2.17612068   1.93787319  -3.33525068
C   -0.32777852   1.27919497  -4.20978176
N    0.76929172   1.44218211  -4.50058006
C    3.62211093  -0.14608889  -2.63867089
H    4.41690383   0.42708009  -3.06841706
H    2.68422524   0.20863119  -3.01209181
H    3.74350921  -1.17646736  -2.90036106
C    3.65333489   0.00141954  -1.10606973
N    3.67658255   0.11124628   0.03502150
C   -0.98239091   4.00144870   2.59353724
H   -0.42676057   3.95047546   1.68053294
H   -0.93067427   4.99491931   2.98754311
H   -2.00394239   3.74560391   2.40413000
C   -0.38624499   3.01318052   3.61311364
N    0.05761275   2.27736993   4.37223461
