72
Energy:   -316.93689109
C    0.63162915   0.91870187   0.39142642
H    1.49944630   0.62795260  -0.16288255
H    0.92824513   1.28594781   1.35165997
H    0.11061527   1.68798045  -0.13928451
C   -0.29441521  -0.29858441   0.57102581
N   -0.98389734  -1.20490937   0.70474572
C    4.43360075   2.13416009   1.06292284
H    4.48008821   1.53299902   1.94685975
H    5.35196587   2.67110506   0.94805470
H    4.27943031   1.50491946   0.21134384
C    3.26682239   3.13222117   1.18167611
N    2.39810286   3.87532301   1.27009331
C    1.79103188   1.51900339  -5.45096981
H    1.73027919   1.76158216  -6.49133746
H    2.71787431   1.87782682  -5.05460137
H    0.97802080   1.97925128  -4.92935313
C    1.71463816  -0.00898182  -5.27483016
N    1.65775956  -1.14663627  -5.14368618
C    2.98868698  -1.21429596  -2.03238558
H    2.36093176  -0.40282548  -2.33625930
H    3.52912857  -1.58349016  -2.87885922
H    3.67909205  -0.87243430  -1.28984229
C    2.12068459  -2.34287041  -1.44545154
N    1.47441736  -3.18314538  -1.00845247
C   -1.30073914  -4.68678645   0.15394736
H   -1.36377113  -3.76978084  -0.39380062
H   -2.05033769  -5.36453470  -0.19770363
H   -0.33296289  -5.12079550   0.01272282
C   -1.52403339  -4.40648911   1.65167000
N   -1.69028610  -4.19779501   2.76679258
C    1.66746856  -2.83289953   2.58081276
H    1.68561636  -3.71931881   1.98178713
H    0.66793456  -2.45377755   2.62661006
H    2.00720864  -3.06318424   3.56896493
C    2.59096097  -1.77133092   1.95484641
N    3.27854304  -0.98094484   1.48878602
C   -4.33741447  -2.14394218   1.51919128
H   -3.50881810  -1.64513638   1.97692594
H   -4.42935107  -3.12941021   1.92576169
H   -5.23497758  -1.59388800   1.71081578
C   -4.10583350  -2.23517934  -0.00056069
N   -3.93341095  -2.30310956  -1.13208511
C   -1.73671876  -0.89408919   4.30993886
H   -2.56738788  -0.22123134   4.26355677
H   -1.70672976  -1.35781108   5.27376549
H   -1.84386004  -1.64552963   3.55577899
C   -0.43013224  -0.11357476   4.07493057
N    0.54268081   0.46755371   3.89995622
C   -3.33767562   1.40252890  -0.66781236
H   -3.17925498   0.43403535  -1.09421983
H   -2.56039385   2.06460346  -0.98779582
H   -4.28484856   1.78296674  -0.98879454
C   -3.32116659   1.29599688   0.86840975
N   -3.30887486   1.21667895   2.01219695
C   -1.13973156  -1.78535366  -2.99193607
H   -2.13086745  -1.90850152  -3.37584286
H   -1.07432365  -2.23408101  -2.02277940
H   -0.44083894  -2.25654408  -3.65104744
C   -0.81325760  -0.28411620  -2.88563058
N   -0.57018290   0.83362332  -2.80648130
C    0.88298782   4.04259609  -1.99804331
H    0.95724335   4.55424885  -1.06124144
H   -0.05392520   3.52843853  -2.05034149
H    0.94613113   4.75108984  -2.79738593
C    2.03369261   3.02649794  -2.12061183
N    2.89044463   2.26996668  -2.21186966
C   -0.63689962   3.61450212   3.04162140
H   -0.67404812   4.53525895   3.58542929
H    0.36006836   3.22665622   3.06463226
H   -1.30466563   2.90854725   3.48952247
C   -1.05723905   3.86355646   1.58118082
N   -1.37020085   4.04898874   0.49381642
