72
Energy:   -321.25534669
C    0.45678419   0.19809001   1.22444289
H    0.56466345  -0.82959784   1.50214766
H   -0.41078000   0.60664015   1.69911989
H    1.32328154   0.74410441   1.53420039
C    0.30305388   0.30333309  -0.30424638
N    0.18859467   0.38169134  -1.44242503
C    2.55917401   1.69869282   4.14869171
H    3.02656376   2.14710032   5.00038280
H    2.95180146   2.13635144   3.25471313
H    2.75530575   0.64682414   4.14676813
C    1.03910632   1.93732500   4.21232273
N   -0.09265317   2.11499751   4.25969891
C    1.95859137  -1.51583239  -3.88507505
H    2.83155526  -2.09928605  -3.67912343
H    1.50518225  -1.85994803  -4.79111241
H    1.26359500  -1.61662812  -3.07778369
C    2.35502211  -0.03575289  -4.03937130
N    2.65018281   1.06623358  -4.15425188
C    1.66742502   3.64357859  -1.99873715
H    0.97009679   4.44344212  -2.13603919
H    1.28293109   2.75354618  -2.45140239
H    2.60029344   3.90141716  -2.45499900
C    1.88180744   3.40225915  -0.49294662
N    2.04142489   3.22258586   0.62818287
C   -1.07968592  -3.01711687  -1.73362800
H   -0.96095453  -2.02623971  -2.11958847
H   -2.00429843  -3.42735490  -2.08247691
H   -0.26882101  -3.62979539  -2.06832522
C   -1.08685887  -2.97100404  -0.19433526
N   -1.09219945  -2.93667093   0.95173816
C    2.40393274  -3.24536142   1.92566540
H    3.03700479  -4.09620099   2.06776393
H    1.41028748  -3.48305573   2.24357986
H    2.77581181  -2.42391805   2.50171734
C    2.38766072  -2.86095006   0.43450372
N    2.37554546  -2.57473833  -0.67573392
C   -3.40393781   0.27149043  -1.71393024
H   -2.94890704   1.14055940  -2.14120803
H   -4.45039393   0.27052169  -1.93715152
H   -2.95087645  -0.60666156  -2.12439774
C   -3.20479674   0.28595749  -0.18692875
N   -3.05652716   0.29672887   0.94999326
C   -1.80363269  -1.02733823   3.98739011
H   -2.06904617  -1.32138000   2.99341058
H   -1.97250165   0.02259195   4.10583411
H   -2.40296753  -1.56658130   4.69089119
C   -0.31599384  -1.33914613   4.23499157
N    0.79162090  -1.57130129   4.41934211
C   -4.51746815  -2.86959507   1.84426832
H   -3.63443413  -3.35738595   2.20093506
H   -5.38144063  -3.38954620   2.20218094
H   -4.53579122  -1.86051542   2.19968585
C   -4.51853096  -2.87152026   0.30426989
N   -4.51932227  -2.87295365  -0.84232894
C   -0.88830436   1.86176545  -4.41796620
H   -1.65532131   2.38353791  -4.95120038
H    0.06468436   2.09477389  -4.84507118
H   -0.90148349   2.16081469  -3.39069070
C   -1.13699703   0.34503513  -4.51430468
N   -1.32216003  -0.78423953  -4.58603305
C    4.09005112   0.54796773  -0.96483102
H    3.09559190   0.74859356  -1.30497850
H    4.49508785  -0.27661094  -1.51338763
H    4.70084856   1.41297790  -1.11839857
C    4.05928715   0.20102475   0.53526370
N    4.03638196  -0.05729006   1.65215240
C   -1.52225924   3.52827573   1.57108447
H   -0.49706212   3.60919621   1.86658900
H   -1.94592986   2.64069630   1.99251662
H   -2.06290924   4.38262485   1.92134760
C   -1.60987607   3.45963743   0.03511179
N   -1.67511078   3.40853309  -1.10848969
