72
Energy:   -320.78140257
C    0.49395645   0.26527010   1.16594180
H    1.36284887  -0.27904533   1.47195955
H   -0.37583064  -0.17291918   1.60906668
H    0.58109176   1.28358313   1.48271475
C    0.36983418   0.21373280  -0.36818256
N    0.27741951   0.17536094  -1.51040789
C    2.82413724   1.77265112   3.82295010
H    2.13770219   2.53195661   4.13465873
H    2.97297536   1.83873287   2.76541546
H    3.75952473   1.90995076   4.32404704
C    2.25161516   0.38709916   4.17517764
N    1.82534645  -0.64450726   4.43742705
C    1.63395232  -2.15548031  -3.83606960
H    2.46231374  -2.80885959  -3.65770747
H    1.04925834  -2.53435578  -4.64815668
H    1.02797144  -2.09940869  -2.95598879
C    2.15541375  -0.75050385  -4.19063851
N    2.54366549   0.29556499  -4.45463119
C    1.97899146   3.21045296  -2.46486840
H    1.27560620   3.98974738  -2.67186975
H    1.60395844   2.28203544  -2.84208219
H    2.91167195   3.43692828  -2.93785373
C    2.18874530   3.09912336  -0.94328730
N    2.34491656   3.01623341   0.18959900
C   -1.48430517  -3.04815361  -1.42734950
H   -0.85731520  -3.87265834  -1.69563237
H   -1.14616550  -2.16516769  -1.92824523
H   -2.49286454  -3.25815803  -1.71649517
C   -1.42179870  -2.83007301   0.09584904
N   -1.37525979  -2.66770209   1.22993959
C    2.08258204  -3.18093105   2.16697421
H    1.14637992  -2.85542217   2.57004955
H    2.87283161  -2.58634475   2.57547371
H    2.24191268  -4.20832153   2.41992013
C    2.06332757  -3.02650574   0.63485734
N    2.04899174  -2.91152908  -0.50587331
C   -3.30863574   0.46787627  -1.51226517
H   -4.27572299   0.05378774  -1.70764457
H   -2.55558871  -0.18754726  -1.89728367
H   -3.22700943   1.42308149  -1.98746956
C   -3.11805834   0.63239296   0.00701575
N   -2.97616481   0.75488312   1.13818946
C   -1.72610692  -0.44352847   4.26916490
H   -2.56561603  -0.46376862   4.93227498
H   -0.96556854  -1.10047966   4.63644626
H   -2.03319066  -0.76267130   3.29512869
C   -1.17047611   0.99045048   4.18805535
N   -0.75678372   2.05811300   4.12766561
C   -4.68994147  -2.14737564   2.34309041
H   -4.60838763  -1.11150002   2.59845456
H   -3.82856448  -2.67178107   2.70076026
H   -5.56966630  -2.55753550   2.79337053
C   -4.78091101  -2.29318704   0.81271020
N   -4.84864196  -2.40175026  -0.32672742
C   -0.87369809   1.52030863  -4.51751979
H   -1.62218661   2.07786792  -5.04077190
H    0.06731933   1.63297332  -5.01420075
H   -0.79353860   1.88461149  -3.51464543
C   -1.26616624   0.03136070  -4.49296797
N   -1.55837661  -1.07722872  -4.47468802
C    4.08086881  -0.05409427  -1.28290728
H    3.13064927   0.32975357  -1.59054969
H    4.24188612  -1.01103835  -1.73371828
H    4.85380194   0.61925585  -1.58962062
C    4.10428417  -0.19838520   0.25013931
N    4.12171797  -0.30581636   1.39156218
C   -1.09358862   3.86565474   1.29710751
H   -1.31634274   4.89208621   1.50136033
H   -0.09584267   3.64695662   1.61581310
H   -1.78200787   3.23938417   1.82508781
C   -1.21818863   3.60448352  -0.21546130
N   -1.31095901   3.41002968  -1.34163754
