72
Energy:   -317.19276643
C    0.18468374  -0.25743994   1.15471604
H   -0.52948387  -0.84556769   1.69227585
H    0.07702286   0.77157214   1.42755731
H    1.17318176  -0.58874986   1.39555728
C   -0.05519620  -0.41514547  -0.35828977
N   -0.23379773  -0.53256440  -1.48479137
C    3.15070449   0.90362168   3.68794814
H    3.63622830   1.47540142   2.92490505
H    3.14228346  -0.12927433   3.40874571
H    3.67926145   1.01926176   4.61107002
C    1.70330369   1.40085005   3.85939743
N    0.62564800   1.77105916   3.98704922
C    0.83575318  -1.89118991  -4.45427381
H    1.59718080  -2.30107801  -5.08444832
H   -0.10899467  -2.32456837  -4.70830867
H    1.06417890  -2.10797395  -3.43166662
C    0.77083488  -0.36550677  -4.65346356
N    0.72250025   0.77043368  -4.80176939
C   -0.00051340   3.19337186  -2.54051574
H   -0.58721015   3.24071255  -3.43407378
H   -0.11988541   2.23210269  -2.08597093
H    1.03031279   3.34816244  -2.78204492
C   -0.46792215   4.28596491  -1.56104165
N   -0.81592921   5.09945010  -0.83177867
C   -0.98849964  -4.08526516  -1.56136276
H   -0.67568889  -3.22170425  -2.11028185
H   -1.96269706  -4.38263299  -1.88909871
H   -0.29662422  -4.88415305  -1.72865180
C   -1.03238073  -3.75035796  -0.05886097
N   -1.06505219  -3.50100433   1.05981991
C    2.63472280  -3.42194328   1.39645432
H    3.32659092  -4.22038544   1.56589105
H    1.69644156  -3.66029560   1.85221256
H    3.01976907  -2.51965792   1.82367745
C    2.43519434  -3.22835033  -0.11824372
N    2.28663633  -3.08421158  -1.24600527
C   -3.77886212  -1.46368182  -0.24673625
H   -4.54452665  -0.89558566  -0.73245712
H   -4.09870879  -2.47969350  -0.14516134
H   -2.88338729  -1.42841083  -0.83135568
C   -3.50535132  -0.86978111   1.14756422
N   -3.30171009  -0.42759503   2.18568429
C   -1.28541521  -1.83905835   4.45512396
H   -1.76365007  -2.37712248   3.66349362
H   -1.57011120  -0.80866710   4.40885124
H   -1.58429367  -2.24972216   5.39689144
C    0.24279918  -1.95659266   4.30563657
N    1.38062425  -2.04410230   4.19433642
C   -2.24699839   2.93526671   1.72002867
H   -2.12317523   3.99298681   1.61612397
H   -1.35092327   2.50886863   2.12019507
H   -3.06366641   2.73506630   2.38174782
C   -2.53949856   2.31477275   0.34124990
N   -2.75727823   1.85278680  -0.68531357
C   -2.65806904   0.57296936  -3.80346268
H   -3.56747798   0.99778160  -3.43277398
H   -2.51492739   0.86942428  -4.82156092
H   -1.83593823   0.91875758  -3.21233620
C   -2.73847091  -0.96279548  -3.72245700
N   -2.79833375  -2.10624220  -3.66214458
C    3.09665765   0.47221313  -1.87244720
H    2.26826120   1.14659041  -1.81019937
H    2.80032049  -0.40878641  -2.40246907
H    3.90393630   0.94582233  -2.39099768
C    3.55355629   0.08795086  -0.45287468
N    3.89373810  -0.19814987   0.60406159
C    1.13550341   4.79759469   2.11156512
H    0.63748236   4.42895939   2.98390865
H    0.49431865   5.48290666   1.59763059
H    2.03563202   5.29912144   2.39990260
C    1.47959648   3.61999132   1.18073203
N    1.73578941   2.74321208   0.48768448
