72
Energy:   -319.71881405
C    0.40580252   0.23989875   1.21297049
H    1.28836324   0.74133193   1.55142509
H    0.41522627  -0.77214827   1.56020400
H   -0.45834841   0.74065936   1.59687292
C    0.36574293   0.25408006  -0.32644307
N    0.33591676   0.26463869  -1.47260645
C    2.45364268   2.10748944   3.92226387
H    2.91158818   2.61043910   4.74823466
H    2.83967951   2.50233098   3.00576247
H    2.66869003   1.06082299   3.97832691
C    0.92942889   2.32175890   3.97187150
N   -0.20541756   2.48129225   4.00880663
C    1.86533323  -1.97054631  -3.74316169
H    2.13409461  -2.98292021  -3.52460600
H    2.05903544  -1.35750488  -2.88784961
H    2.44337220  -1.61909017  -4.57216629
C    0.36778467  -1.90164006  -4.09558225
N   -0.74720830  -1.85033622  -4.35797537
C    1.62356097   3.98266720  -2.00114628
H    1.74103748   5.04093510  -2.10682736
H    0.68692756   3.68384941  -2.42343158
H    2.42039920   3.48267447  -2.51100429
C    1.65568321   3.60924185  -0.50745231
N    1.67959969   3.33120971   0.60467074
C   -0.95384991  -3.27800402  -1.07684793
H   -0.93627234  -2.29675345  -1.50315594
H   -1.82737400  -3.79700082  -1.41225377
H   -0.08042373  -3.81530459  -1.38235389
C   -0.97900761  -3.16999255   0.45915358
N   -0.99773866  -3.08957311   1.60277651
C    2.66172192  -2.76190902   2.25650254
H    1.73609709  -3.08704818   2.68358965
H    2.91128631  -1.79472139   2.64012319
H    3.43503452  -3.45659877   2.51006292
C    2.52175124  -2.68614480   0.72474930
N    2.41753671  -2.62973489  -0.41571061
C   -3.17415679  -0.22075411  -2.04292371
H   -3.57390299   0.68178877  -2.45586376
H   -3.81889843  -1.03976088  -2.28465752
H   -2.20159843  -0.39979760  -2.45154670
C   -3.07063193  -0.08329466  -0.51256836
N   -2.99355297   0.01905015   0.62685076
C   -1.81023955  -0.71200975   4.10834980
H   -2.03348432  -0.96252048   3.09232503
H   -2.04910555   0.31627465   4.28291587
H   -2.38938769  -1.32886791   4.76330974
C   -0.31160242  -0.94360821   4.37676907
N    0.80420105  -1.11604379   4.57661942
C   -4.49203530  -2.81654050   2.14662382
H   -3.64256606  -3.27732409   2.60595015
H   -5.38858118  -3.23559194   2.55344131
H   -4.47256556  -1.76361722   2.33602443
C   -4.45230192  -3.06565863   0.62742620
N   -4.42271862  -3.25113840  -0.50368548
C   -0.61308701   1.63489538  -4.53240072
H   -1.00103216   0.86714300  -5.16876148
H   -0.89330213   2.59296182  -4.91774120
H   -1.01190749   1.51640683  -3.54660065
C    0.92257040   1.53152018  -4.48072979
N    2.06593715   1.45455264  -4.44225843
C    3.92811721   0.60031377  -1.46046661
H    2.98137499   0.98251529  -1.78062492
H    4.08334322  -0.36944838  -1.88516103
H    4.70654302   1.25974556  -1.78311512
C    3.94695766   0.49687283   0.07593992
N    3.96098522   0.41985635   1.21986441
C   -1.91091101   3.40434999   1.21239759
H   -0.93651344   3.66219720   1.57151368
H   -2.22684848   2.48773936   1.66506476
H   -2.60103042   4.18255646   1.46345334
C   -1.86534521   3.23244096  -0.31729880
N   -1.83141940   3.10444688  -1.45622729
