72
Energy:   -317.52786636
C    2.23796258   2.79794962   1.71382658
H    2.02583970   3.40787989   2.56699077
H    2.10430366   3.37353813   0.82178831
H    3.24867430   2.45063389   1.76610176
C    1.28095886   1.59156169   1.69453895
N    0.56842608   0.69335103   1.68017844
C    3.39513215   0.72770854  -1.59134874
H    4.36777338   0.56928461  -1.17449015
H    2.78614687   1.25363034  -0.88605286
H    3.48118095   1.30465332  -2.48836012
C    2.74789231  -0.63158531  -1.91538706
N    2.26599284  -1.64364136  -2.15664832
C    1.29340431  -1.34303872  -5.61773114
H    1.57239156  -2.05283859  -4.86723101
H    1.81126238  -1.56391445  -6.52764104
H    0.23807981  -1.39772408  -5.78565611
C    1.66542178   0.07514697  -5.14661296
N    1.94240569   1.13105069  -4.79584407
C   -0.68157932   3.01405755  -3.75564099
H   -0.23223356   3.72295649  -4.41930572
H   -1.69535894   3.29767881  -3.56404519
H   -0.66163924   2.04292573  -4.20442210
C    0.10208611   2.98327421  -2.43030297
N    0.68556065   2.96035462  -1.44352857
C   -1.96895660   3.06492184   1.14908691
H   -1.03455011   3.55853548   0.98136609
H   -1.80933836   2.19350821   1.74913640
H   -2.63740674   3.72929507   1.65572457
C   -2.58146695   2.65246986  -0.20232510
N   -3.03750875   2.34538061  -1.20851278
C   -0.72069410  -0.37533239  -1.11562233
H   -0.42218300  -1.32969938  -0.73486657
H   -1.55694435  -0.01327734  -0.55481866
H    0.09293546   0.31402662  -1.02792859
C   -1.11777075  -0.51500785  -2.59698012
N   -1.41341237  -0.61900258  -3.69991833
C   -1.87248207   0.99975014   4.86445047
H   -2.74201047   1.22070641   4.28135625
H   -2.13468784   0.97766848   5.90159059
H   -1.48166956   0.04666023   4.57499531
C   -0.80610686   2.08525830   4.62756244
N   -0.01214205   2.89346847   4.45118853
C   -4.79485279  -0.56038811  -1.38277494
H   -4.38687803  -0.01425814  -2.20751662
H   -4.78087662   0.05358521  -0.50656690
H   -5.80297050  -0.84178590  -1.60506540
C   -3.95120929  -1.82506940  -1.13691549
N   -3.32307835  -2.76668211  -0.95386195
C    2.77432707   0.56406540   4.93232348
H    3.06497404   0.58336971   5.96191168
H    2.38137253   1.51978102   4.65466634
H    3.62623286   0.33869389   4.32539408
C    1.69546405  -0.51486983   4.72362910
N    0.89220149  -1.31818615   4.56824665
C   -0.47695964  -4.01006258  -2.71430327
H   -0.36237044  -4.95369217  -3.20555952
H    0.17462830  -3.29142769  -3.16585188
H   -1.49065139  -3.68036724  -2.80719625
C   -0.12072297  -4.16075351  -1.22366996
N    0.14451142  -4.27294976  -0.11382570
C    2.41175452  -2.37251870   1.37666784
H    1.57229083  -2.06466454   0.78893771
H    2.07304425  -2.70495779   2.33565621
H    2.92003220  -3.17291868   0.88077192
C    3.37590613  -1.18515500   1.55605325
N    4.09376083  -0.30110875   1.68961385
C   -1.50504695  -2.24638665   2.17109327
H   -1.76257936  -3.02098200   1.47929904
H   -1.58202714  -2.62070029   3.17052433
H   -0.50162899  -1.92335346   1.98751482
C   -2.46777234  -1.05774072   1.99254166
N   -3.18456515  -0.17273980   1.85960186
