72
Energy:   -316.66797809
C    0.62686360   0.04930132   0.98380550
H   -0.17844490  -0.41381125   1.51475291
H    0.77911474   1.03948996   1.35963143
H    1.51977971  -0.52462451   1.11874641
C    0.28164567   0.11673007  -0.51548698
N    0.02461523   0.16693383  -1.63177839
C    3.56336642   1.86164106   2.94603360
H    4.28718368   2.28346610   3.61165540
H    3.73154627   2.23073868   1.95589140
H    3.65425861   0.79551451   2.94948210
C    2.14873804   2.25772963   3.40813792
N    1.09548292   2.55263557   3.75219560
C    1.21300405  -2.16038144  -3.99621401
H    1.57389456  -1.80018232  -4.93691312
H    1.56218235  -3.15953233  -3.83914360
H    1.57290366  -1.52917103  -3.21075570
C   -0.32695340  -2.14923968  -3.99884731
N   -1.47352171  -2.14094413  -4.00080792
C    0.57635823   3.72672988  -2.22755448
H    0.07374696   4.65839955  -2.07175425
H   -0.14547655   2.95810618  -2.40940950
H    1.22878965   3.81020793  -3.07151167
C    1.39963318   3.37191893  -0.97538534
N    2.01259880   3.10774605  -0.04308850
C   -1.57942794  -3.28210002  -0.66394691
H   -1.35843151  -2.38005334  -1.19533430
H   -2.62033343  -3.50894273  -0.76373281
H   -0.99905774  -4.08523286  -1.06773790
C   -1.23467041  -3.09797773   0.82563062
N   -0.97798276  -2.96089033   1.93468880
C    2.81431931  -3.26222084   1.65361726
H    3.46063865  -4.11296250   1.71201346
H    2.00423466  -3.38178628   2.34235963
H    3.36479388  -2.37848960   1.90038828
C    2.25774608  -3.13761609   0.22312787
N    1.84335201  -3.04484220  -0.84193650
C   -3.37354866   0.06192236  -1.29118396
H   -2.97322480  -0.32204103  -0.37619046
H   -2.98211896  -0.49818275  -2.11456975
H   -4.44010387  -0.02270741  -1.27715258
C   -2.97803899   1.54248153  -1.44322557
N   -2.68356407   2.64482513  -1.55642745
C   -0.59537476  -0.50799029   4.59335691
H   -0.92938345  -0.97205689   5.49777969
H   -1.19328398  -0.85057568   3.77479786
H   -0.68764303   0.55429938   4.68238674
C    0.87869035  -0.87591812   4.34164044
N    1.97619882  -1.14985711   4.15422610
C   -4.09050627  -1.78495255   3.34304162
H   -3.20752477  -2.32068599   3.62274423
H   -4.91029332  -2.10636517   3.95094147
H   -3.93127706  -0.73635263   3.48440411
C   -4.41063064  -2.06050351   1.86209866
N   -4.64897778  -2.26566372   0.75946931
C   -1.36594839   1.27001624  -4.74268398
H   -1.75419211   0.90381999  -5.67008211
H   -1.73809256   2.25740145  -4.56526285
H   -1.67430665   0.62433572  -3.94712698
C    0.17224989   1.30526583  -4.80828520
N    1.31750843   1.33151075  -4.85712830
C    3.61361484   0.71747043  -2.25719655
H    3.90682578   1.74542059  -2.30458860
H    2.57235170   0.63256147  -2.48841209
H    4.18326768   0.15113707  -2.96406376
C    3.87037703   0.17529178  -0.83884698
N    4.06154815  -0.22838486   0.21717874
C   -1.42326106   3.52991008   1.66837223
H   -1.86966708   3.96757928   0.80000162
H   -0.36628779   3.44824118   1.52333155
H   -1.61976694   4.14718856   2.51998940
C   -2.01920095   2.12911371   1.90123521
N   -2.46290529   1.08615714   2.07461228
