72
Energy:   -316.89535864
C    1.22337565   1.73949130   4.51968560
H    1.69284390   2.50150451   5.10606058
H    1.75537304   1.61928697   3.59912665
H    1.23334810   0.81631580   5.06056140
C   -0.23234172   2.14444964   4.22220335
N   -1.31618947   2.44595952   4.00071429
C    3.61401061  -0.60638275   2.50180136
H    4.11647620  -1.42480208   2.97362582
H    2.59529382  -0.57756488   2.82781475
H    4.09909380   0.31002979   2.76596314
C    3.65886934  -0.78889625   0.97331305
N    3.69226870  -0.92478585  -0.16471598
C    2.91243488  -1.45073106  -3.99667178
H    3.07185756  -1.80673413  -3.00030518
H    3.76540917  -1.68342955  -4.59932041
H    2.04493490  -1.92200295  -4.40928016
C    2.70389117   0.07484107  -3.96948366
N    2.54862090   1.21069887  -3.94924088
C    0.46923086  -0.15575465  -1.24083122
H   -0.47467896  -0.58561780  -1.50379909
H    1.24500645  -0.87598299  -1.39685193
H    0.65230806   0.70360222  -1.85147646
C    0.44772413   0.26268663   0.24107443
N    0.43171139   0.57423517   1.34442055
C    1.19810614  -3.49352662   0.96314565
H    1.78860284  -3.17149392   0.13097453
H    1.28404823  -4.55448306   1.07216168
H    1.54606130  -3.01407731   1.85418699
C   -0.27625799  -3.12007676   0.72151452
N   -1.37398910  -2.84202636   0.54160916
C   -1.88817354  -3.03893708  -2.99692541
H   -2.48775134  -3.84885648  -2.63715157
H   -2.03187851  -2.92985161  -4.05160467
H   -2.17613387  -2.13485937  -2.50233323
C   -0.40395175  -3.33145672  -2.70862359
N    0.70111883  -3.54925088  -2.49396978
C   -3.04249283   1.75793162   0.90868816
H   -3.83905378   1.40763643   1.53133102
H   -3.19826410   2.79102139   0.67769046
H   -2.11119426   1.64396133   1.42307404
C   -3.01222007   0.93924839  -0.39532155
N   -2.98968063   0.32970152  -1.36621606
C   -1.98033498  -1.03084294   3.41004614
H   -1.99216329  -0.71870220   2.38665549
H   -2.29423721  -0.22014633   4.03385340
H   -2.64656674  -1.85824019   3.53829642
C   -0.55264826  -1.45605661   3.80056369
N    0.51032940  -1.77264751   4.09132176
C   -4.68475798  -2.67555646  -0.38299776
H   -4.38446763  -2.07776472  -1.21808514
H   -5.62591420  -3.13810297  -0.59554134
H   -3.94885639  -3.43095888  -0.20212453
C   -4.82153859  -1.78299209   0.86448768
N   -4.92337797  -1.11843734   1.79329729
C   -1.03824032   1.99462089  -4.05203331
H   -1.68959230   2.02308565  -3.20360503
H   -1.49000611   2.52158285  -4.86635379
H   -0.10605915   2.45642754  -3.80168958
C   -0.79221896   0.53056264  -4.46143158
N   -0.60904487  -0.55949527  -4.76624720
C    3.30964236   2.56473845  -1.02863941
H    2.31499514   2.61867196  -1.41936729
H    3.74519284   1.62316761  -1.29063032
H    3.89839326   3.35720998  -1.44126555
C    3.26696245   2.70170629   0.50466364
N    3.23518531   2.80368507   1.64627746
C    0.01430163   4.41831170   1.46266920
H    0.37332186   5.41939618   1.34504905
H    0.72943507   3.84555531   2.01532946
H   -0.91604219   4.43281817   1.99101477
C   -0.19267745   3.78095982   0.07611150
N   -0.34678278   3.30642237  -0.95624373
