72
Energy:   -319.63739634
C    0.37814700   0.24119574   1.18940250
H    1.34631414   0.63836977   1.41257361
H    0.28908665  -0.73875479   1.60971701
H   -0.37352830   0.87803149   1.60692324
C    0.19474055   0.16339071  -0.33765626
N    0.05818612   0.10546133  -1.47462092
C    2.82971813   2.20762706   3.62192328
H    3.38809185   2.76647360   4.34359462
H    3.18653454   2.43681160   2.63955085
H    2.95032820   1.16123078   3.81009107
C    1.33893748   2.57948050   3.72631719
N    0.22898353   2.85634229   3.80404320
C    1.88643704  -2.02382769  -3.75168537
H    2.80701836  -2.56826810  -3.71982857
H    1.23770292  -2.46245517  -4.48082806
H    1.41790428  -2.05884263  -2.79035811
C    2.16951771  -0.55854685  -4.13170824
N    2.38028414   0.53242134  -4.41465254
C    1.55268885   3.24725437  -2.53878804
H    2.46994629   3.24540281  -3.08972862
H    1.02409146   4.15787116  -2.72921113
H    0.95201579   2.41579177  -2.84335481
C    1.85782962   3.13599616  -1.03342738
N    2.08502079   3.05315937   0.08738206
C   -1.09033338  -3.38034124  -1.55158038
H   -0.96272006  -4.14746361  -2.28652139
H   -0.58095235  -3.65913696  -0.65285740
H   -0.68498910  -2.46155579  -1.92094255
C   -2.59052447  -3.19736493  -1.25569804
N   -3.70748493  -3.06113075  -1.03540019
C    2.22472957  -3.01798272   2.37602637
H    1.22851579  -3.12353448   2.75194805
H    2.67686578  -2.14747178   2.80344027
H    2.79814440  -3.88265541   2.63762847
C    2.18250576  -2.87446955   0.84330946
N    2.15106821  -2.76761746  -0.29786794
C   -3.55051540   0.25591563  -1.54742720
H   -2.72069641  -0.25578383  -1.98840825
H   -3.66170034   1.21638439  -2.00572486
H   -4.44244608  -0.31595933  -1.69681860
C   -3.30109736   0.43309605  -0.03812347
N   -3.11539430   0.56501493   1.08562176
C   -1.67100657   0.05022401   4.51741107
H   -2.02233634   0.02309111   3.50709855
H   -1.72038131   1.05375195   4.88536883
H   -2.28317373  -0.58297967   5.12503230
C   -0.21322595  -0.44371587   4.56740149
N    0.87215799  -0.81147656   4.60462162
C   -4.02564527  -2.55137318   2.40069174
H   -4.29268217  -1.52020150   2.50206462
H   -4.29165607  -3.07810578   3.29326673
H   -4.54727984  -2.97468134   1.56786122
C   -2.50768851  -2.66814124   2.16880278
N   -1.37750070  -2.75508037   1.99615090
C   -1.20162632   1.14624946  -4.56518017
H   -2.01180360   1.56325560  -5.12608910
H   -0.27463901   1.39797893  -5.03658859
H   -1.21520595   1.54183445  -3.57108400
C   -1.35020118  -0.38557932  -4.51017015
N   -1.46082192  -1.52609547  -4.46921270
C    3.96140264   0.18257525  -1.16882882
H    4.56389095   1.01009251  -1.48047480
H    2.94509744   0.35280704  -1.45700232
H    4.31838162  -0.71317343  -1.63261692
C    4.04320691   0.03577071   0.36197375
N    4.10411391  -0.07353194   1.50172584
C   -1.40822071   3.79247377   1.05849174
H   -0.36526755   3.91347831   1.26466349
H   -1.79478035   2.98109440   1.63912437
H   -1.92867813   4.69229831   1.31214299
C   -1.60386742   3.49102222  -0.43898925
N   -1.74953530   3.26657784  -1.55393192
