72
Energy:   -318.04353323
C   -3.47776515   0.73895725   1.59842858
H   -4.23128225   0.33698030   0.95381499
H   -3.94262005   1.22833191   2.42868243
H   -2.85377816  -0.05362012   1.95530455
C   -2.62229353   1.75389060   0.81760939
N   -1.98535603   2.50955461   0.23625401
C    0.94289350   4.33691778  -0.47601640
H    0.34014531   4.17840970  -1.34576924
H    1.03008942   5.38683268  -0.28900125
H    0.48557418   3.86136073   0.36636333
C    2.34310381   3.73840392  -0.70578202
N    3.38562403   3.29278314  -0.87685297
C   -2.07237890   0.87122872  -3.02343567
H   -2.46472202   1.16914791  -3.97328367
H   -1.20633427   0.26040817  -3.17096211
H   -1.80407231   1.74032228  -2.45988704
C   -3.14031776   0.07072632  -2.25512423
N   -3.93544679  -0.52528411  -1.68308143
C    0.84607449   0.56610870  -0.58708023
H    0.33067691   1.45059990  -0.89843348
H    1.47241645   0.21964005  -1.38241306
H    1.44727501   0.78670513   0.27012117
C   -0.17888366  -0.52573746  -0.22800815
N   -0.94201158  -1.33866656   0.03933734
C   -3.63107236  -3.27377039   0.95719275
H   -3.47534042  -2.51726444   0.21668854
H   -4.67754844  -3.36235595   1.16198413
H   -3.25799878  -4.20911479   0.59546626
C   -2.88601243  -2.88887905   2.24883680
N   -2.33128144  -2.60230996   3.21052451
C    3.19011345   1.21839215  -3.87274778
H    3.58412499   1.43273221  -4.84419692
H    3.05318432   0.16232860  -3.76844406
H    3.87381861   1.56485513  -3.12614899
C    1.83608022   1.93119836  -3.69925044
N    0.82794093   2.46191497  -3.57007379
C   -0.21792815   0.17266952   3.61747423
H   -1.05765931   0.52965507   4.17632402
H    0.44691982  -0.35383290   4.26990926
H   -0.55714143  -0.48672216   2.84608844
C    0.52198775   1.36568035   2.98434736
N    1.07288877   2.25393113   2.51295563
C    0.67059336  -3.84379975   2.07092759
H    0.32562305  -3.99001524   3.07318339
H    1.24464503  -4.69295889   1.76385671
H   -0.16912031  -3.72604244   1.41830729
C    1.54944899  -2.58068462   2.00966624
N    2.20379695  -1.64023799   1.96405437
C    4.45521081   0.82373764   1.19197979
H    4.89537408   1.78056680   1.00320892
H    5.07742796   0.27138464   1.86477328
H    3.48738087   0.95625017   1.62860860
C    4.31912858   0.05087398  -0.13307243
N    4.21780917  -0.52455815  -1.11963404
C    2.44806791  -3.27220515  -1.69060477
H    1.96934117  -4.22091032  -1.56538734
H    2.55070767  -2.79598895  -0.73793363
H    3.41588598  -3.41549035  -2.12384444
C    1.59641594  -2.38594909  -2.61841894
N    0.96232234  -1.72609117  -3.30921875
C   -2.06731170  -3.35008478  -2.67288747
H   -1.62966371  -2.37417928  -2.70407855
H   -3.08247786  -3.27534669  -2.34311333
H   -2.04091692  -3.78422369  -3.65049977
C   -1.27410460  -4.23739221  -1.69559120
N   -0.68352585  -4.89803293  -0.96794970
C   -1.17431879   4.95548786   2.76494626
H   -1.43719216   5.89349821   3.20759098
H   -1.46871565   4.95156824   1.73625087
H   -0.11610541   4.81277959   2.83363298
C   -1.89530376   3.81648667   3.50956494
N   -2.43210984   2.96844851   4.06396739
