72
Energy:   -318.03619826
C    0.28432646   0.12386317   1.16089808
H    1.29732590   0.31888345   1.44497449
H   -0.02275914  -0.82001752   1.56050634
H   -0.34872652   0.89653488   1.54446223
C    0.17946110   0.08959266  -0.37514514
N    0.10138408   0.06407670  -1.51879914
C    2.23086780   2.17037549   3.75513556
H    2.77308287   2.58674329   4.57826427
H    2.67239560   2.49536688   2.83625968
H    2.26516609   1.10229212   3.80917855
C    0.76564695   2.64061490   3.81515854
N   -0.32527657   2.99072952   3.85984836
C    2.26974309  -1.74244910  -3.70326545
H    3.22201489  -2.16750392  -3.46366786
H    1.86605384  -2.23400841  -4.56367437
H    1.60412319  -1.86900737  -2.87511556
C    2.43818971  -0.24105795  -4.00167851
N    2.56360587   0.87679601  -4.22386059
C    1.26956293   3.40409717  -2.37433205
H    2.21587194   3.50416044  -2.86360375
H    0.67643796   4.27433150  -2.56352524
H    0.76367870   2.53916360  -2.74965879
C    1.48933747   3.25245145  -0.85765716
N    1.65296961   3.13954431   0.27157624
C   -0.54721778  -3.61964138  -1.75975254
H   -0.44029613  -3.71161043  -2.82041725
H   -0.13657126  -4.48534279  -1.28348623
H   -0.02737269  -2.74706224  -1.42320268
C   -2.04032005  -3.49717330  -1.40303528
N   -3.15200255  -3.40599024  -1.13744307
C    2.56585190  -2.75465950   2.33679527
H    1.71868482  -2.24557963   2.74672916
H    3.46325790  -2.34317663   2.74940091
H    2.50725037  -3.79560187   2.57742766
C    2.57788785  -2.58140253   0.80661974
N    2.58684917  -2.45240485  -0.33266550
C   -3.50813972  -0.15886729  -1.65876538
H   -2.62056232  -0.55328144  -2.10770193
H   -3.73550775   0.79199358  -2.09358312
H   -4.32255106  -0.83206974  -1.82738250
C   -3.28620375   0.00917396  -0.14413455
N   -3.12096233   0.13428832   0.98357696
C   -2.53251454   0.55656511   4.48570960
H   -3.33662993  -0.10412442   4.73428145
H   -2.72726166   1.01491206   3.53866645
H   -2.44729230   1.31327763   5.23738933
C   -1.21755318  -0.24131462   4.40912911
N   -0.23850468  -0.83537234   4.35211145
C   -3.13687559  -2.99223841   2.42894303
H   -3.79242744  -3.13474241   1.59536966
H   -3.21772774  -1.98400985   2.77799487
H   -3.40863358  -3.66485093   3.21547916
C   -1.68587335  -3.27017590   1.99426699
N   -0.60553622  -3.47711299   1.67063092
C   -1.10766048   1.02630577  -4.60304548
H   -1.90018516   1.36657823  -5.23630646
H   -0.17375911   1.39891187  -4.96895806
H   -1.26855036   1.38324195  -3.60724927
C   -1.07957603  -0.51343045  -4.59818462
N   -1.05866587  -1.65983405  -4.59456548
C    4.01496650   0.71444752  -0.94103031
H    3.00059924   0.61011993  -1.26518303
H    4.62444729  -0.01163226  -1.43725648
H    4.36600306   1.69695527  -1.17841386
C    4.09247027   0.49553629   0.58135960
N    4.15017536   0.33254693   1.71484808
C   -1.92132281   3.57897870   1.01144537
H   -0.92794541   3.89276726   1.25565480
H   -2.16617380   2.70132842   1.57240623
H   -2.61152714   4.36032360   1.25231301
C   -2.00526318   3.26596491  -0.49406995
N   -2.06776060   3.03291191  -1.61499454
