72
Energy:   -319.14691617
C   -0.73875725  -0.94555591   0.09974437
H   -0.20714212  -1.80889992  -0.24219518
H   -1.47276479  -0.66747537  -0.62744422
H   -1.22265441  -1.16895323   1.02755700
C    0.24898844   0.21831322   0.30313343
N    0.98441001   1.08486668   0.45456583
C    2.19968764   0.79156155   3.82138430
H    2.67860716   0.89380096   2.87002559
H    2.89289893   0.38494856   4.52779995
H    1.86825760   1.75134410   4.15883159
C    0.98970485  -0.15173910   3.68824710
N    0.08881766  -0.85406931   3.58912041
C    1.06788167  -0.29343008  -3.73932497
H    0.98992357   0.43343992  -4.52065891
H    1.77055499  -1.04864801  -4.02356989
H    1.40033685   0.18304040  -2.84079922
C   -0.30973063  -0.93839271  -3.49889295
N   -1.33542560  -1.41859670  -3.31988039
C    2.68780853   3.97392512   1.90936307
H    3.66555692   3.68951963   2.23802975
H    2.03306452   3.12948262   1.96527589
H    2.31454385   4.75676755   2.53604505
C    2.76014591   4.47191535   0.45389991
N    2.81400439   4.84269172  -0.62975858
C    0.16490446  -4.45709393  -1.88662033
H    0.17437332  -5.26639792  -2.58650430
H    0.88384656  -4.64327496  -1.11632301
H    0.41072763  -3.54619172  -2.39132541
C   -1.23726694  -4.33535772  -1.26156379
N   -2.28124727  -4.24471957  -0.79618078
C    3.29388476  -2.16091978   1.28648725
H    2.48033784  -1.87614239   1.92047734
H    4.13379233  -1.52600874   1.47712393
H    3.56255797  -3.17727487   1.48582644
C    2.86925580  -2.02179178  -0.18726091
N    2.55310024  -1.91820467  -1.28453341
C   -4.47834733  -1.77970731  -1.12442192
H   -4.89883121  -2.75119706  -1.28031022
H   -3.55856674  -1.69822763  -1.66503623
H   -5.16335798  -1.03466590  -1.47165784
C   -4.21105758  -1.57106046   0.37778402
N   -4.01204822  -1.41571340   1.49624463
C   -2.49878542   1.41209809   2.54895023
H   -2.29829054   0.45952209   2.99313594
H   -2.60238808   1.29722725   1.49019140
H   -3.40481659   1.81125967   2.95475394
C   -1.33422811   2.37393104   2.84942267
N   -0.46716227   3.09005938   3.07313805
C   -1.81143435  -3.71379667   2.77655206
H   -2.58136843  -3.93806319   2.06816924
H   -1.91979411  -2.70399035   3.11337313
H   -1.89011394  -4.37858822   3.61127406
C   -0.43410552  -3.88758422   2.10994633
N    0.59137840  -4.01697695   1.61362807
C   -3.11719750   1.43566928  -3.82194770
H   -3.87586102   2.09611830  -4.18682706
H   -3.31595557   0.44112499  -4.16294032
H   -2.16249815   1.75340203  -4.18594513
C   -3.11327953   1.45921915  -2.28213275
N   -3.11036242   1.47675309  -1.13567054
C    3.71422140   1.61144095  -1.59908687
H    2.69562434   1.93820311  -1.57486487
H    3.78793107   0.71640557  -2.18078924
H    4.32296308   2.37370049  -2.03873793
C    4.19802081   1.33224517  -0.16396045
N    4.55823147   1.12437121   0.90455640
C   -0.59615265   4.02216245  -0.55881290
H   -0.27688164   5.03956741  -0.64743205
H   -0.12179590   3.57196548   0.28806812
H   -1.65804600   3.99142195  -0.43099808
C   -0.21005005   3.25004891  -1.83410325
N    0.07742089   2.67517528  -2.78361488
