19
Energy:   -381.62953478
Na   0.32663176   0.38922969  -0.36898687
O   -1.96961685   1.27877846   2.88660730
H   -2.31004273   2.15021953   3.08892521
H   -2.25960355   0.73231343   3.61702877
O    0.42563970   2.17370374  -1.86031438
H    1.20297810   2.47609504  -2.32992738
H   -0.27700462   2.74829463  -2.16423562
O   -1.89564922   0.36970532   0.29081668
H   -2.73017294  -0.07056197   0.12967477
H   -1.99781247   0.76889958   1.15478338
O    1.01602605   0.82991706   1.84933162
H    1.87016878   0.90521741   2.27477481
H    0.39166675   0.77426913   2.57273374
C    1.97160597  -3.80906083  -2.69164462
H    2.66054396  -3.49682835  -3.44846396
H    1.14294789  -4.30903728  -3.14798706
H    2.46304740  -4.47723889  -2.01568420
C    1.46538926  -2.57717075  -1.91847487
N    1.08848792  -1.65997258  -1.34281485
