19
Energy:   -380.36358647
Na  -0.01539347  -0.54452869  -0.11813796
O    2.19169093  -0.55416086   0.59206579
H    2.99352773  -0.49005699   0.07323993
H    2.49538739  -0.59822239   1.49874042
O   -1.17351210   0.57728862   1.52267106
H   -1.98583557   1.07326957   1.62448127
H   -0.72488917   0.67652551   2.36238611
O    0.21251900   0.77296935   3.86163830
H    0.59740379   1.58997196   4.17881693
H   -0.03509444   0.30000778   4.65613612
O   -1.23688087  -2.51732139  -0.21120153
H   -1.86407137  -2.78366349   0.46105274
H   -1.28183626  -3.21069753  -0.86956343
C   -0.05509648   1.45362839  -4.76477131
H   -0.91283938   1.07914061  -5.28336190
H    0.82989174   1.20235667  -5.31117542
H   -0.12886673   2.51729637  -4.67495214
C    0.01186474   0.82336643  -3.36124501
N    0.06172041   0.35410776  -2.31625589
