19
Energy:   -381.24435594
Na  -0.14291312   0.34264593  -0.17052471
O   -2.11516506   1.56632938  -0.39898535
H   -2.26712278   2.50333094  -0.52214694
H   -2.98798350   1.19741017  -0.26363973
O    1.61633141   1.55444432   0.78751823
H    1.87071819   1.36419263   1.69047089
H    2.21221939   2.25103811   0.51200697
O   -0.15389778  -1.14168401   1.58140553
H    0.17073177  -0.76307058   2.39841188
H   -0.35990448  -2.04982294   1.80293833
O    0.99424943   0.00303584   3.77041902
H    1.66911448  -0.53136694   4.18899121
H    0.47858891   0.35136760   4.49773673
C   -0.23191715  -1.66295517  -4.80861039
H    0.37217865  -2.54610961  -4.81119478
H    0.15298252  -0.96545940  -5.52292894
H   -1.23846831  -1.91857659  -5.06631478
C   -0.20665004  -1.02784060  -3.40590193
N   -0.18783753  -0.55496892  -2.36152171
