19
Energy:   -381.42400973
Na   0.76652933   0.29458904  -0.27107084
O    0.53348437  -1.70456450   0.83547295
H    0.65222224  -2.63975699   0.66949657
H    0.23271146  -1.65818523   1.74300613
O    0.39596162   1.53555040   1.68030119
H   -0.06541779   1.22415344   2.45901347
H    0.62261988   2.44326206   1.88258173
O   -0.38983568  -1.38884102   3.42269835
H    0.11531544  -1.39739011   4.23570580
H   -1.21961637  -1.80768425   3.65131639
O    2.81358454   0.68758939  -1.26999569
H    3.66785528   0.87200240  -0.87955339
H    2.99074513   0.60518518  -2.20704186
C   -2.80671278   0.64413617  -3.83827563
H   -2.71542278  -0.22143729  -4.46064924
H   -2.74636610   1.52549197  -4.44198858
H   -3.74943870   0.62203700  -3.33262897
C   -1.66813361   0.65322769  -2.80137890
N   -0.82040967   0.65999673  -2.02936216
