19
Energy:   -381.76896063
Na   0.69402932   0.33575903  -0.44218769
O   -0.09267260   1.76338534   1.17543069
H    0.18583358   2.14536851   2.00774975
H   -0.99813817   2.05486608   1.06864624
O    2.72601660   0.75543890  -1.51213494
H    3.38863791   0.07963753  -1.65516415
H    3.15252056   1.56991636  -1.77850438
O   -2.73564848   2.32382341   0.52696507
H   -3.04404854   3.22164500   0.40433703
H   -3.47235016   1.87096112   0.93735298
O   -1.06062549   0.48200179  -1.93083553
H   -1.92116364   0.80079561  -1.65866569
H   -1.13749804   0.36201990  -2.87736964
C    0.94491634  -4.36713013   1.44466145
H    1.81409498  -4.89040597   1.10464517
H    0.06685027  -4.88347355   1.11711215
H    0.95273202  -4.31938834   2.51356684
C    0.94645887  -2.93956549   0.86703111
N    0.94760735  -1.87667872   0.43695907
