19
Energy:   -382.19336638
Na  -0.09718076   0.49218428  -0.38167286
O   -2.01832785  -0.65426275   0.21515717
H   -2.41723627  -0.63974200   1.08515319
H   -2.61237104  -1.18818951  -0.31235279
O   -0.20693652   2.52310552  -1.47824217
H    0.07289457   3.38347226  -1.16567943
H   -0.41972878   2.66065487  -2.40129768
O    0.35572319   0.97223007   1.83817481
H    1.03984342   1.33891176   2.39831398
H   -0.30568372   0.64688720   2.44885047
O   -1.52752763   0.02919850   3.56148166
H   -2.01166126   0.64266108   4.11421138
H   -1.31084085  -0.69893122   4.14380957
C    2.81612692  -2.37921115  -3.36518586
H    3.50068030  -1.77027687  -3.91789364
H    2.22590536  -2.95859585  -4.04404592
H    3.36272313  -3.03414524  -2.71928106
C    1.89366801  -1.47912336  -2.52226740
N    1.20685543  -0.80896708  -1.89467629
