19
Energy:   -388.43926186
Na  -0.25929544  -0.54721103   0.48791761
O   -1.72536674   1.13840112   1.19232945
H   -2.56328485   1.38147776   0.79857973
H   -1.55335480   1.82687467   1.83470622
O    1.78472314  -0.54791193   1.61309943
H    2.01341662  -0.90900610   2.46957018
H    2.60467568  -0.18376644   1.27947129
O   -1.06167779  -1.80313944  -1.30731838
H   -0.80977524  -1.68948641  -2.22375711
H   -1.67688710  -2.53639344  -1.31669552
O   -1.17490690  -2.06727320   2.03366040
H   -0.97477960  -2.98210481   2.23181195
H   -1.88765016  -1.84254220   2.63176146
C    1.77783417   2.70347862  -2.89474210
H    0.99566255   3.02856237  -3.54852211
H    2.56376232   2.26167601  -3.47095949
H    2.16134582   3.54249465  -2.35264431
C    1.22045650   1.66390878  -1.90467913
N    0.80546348   0.88990179  -1.16753225
