19
Energy:   -382.78965011
Na   0.61422380   0.05202023   0.39055486
O    0.66016514   0.30751735  -1.92065626
H    0.81107617   0.92612521  -2.63534642
H    0.56522331  -0.54087157  -2.35361600
O    0.17141884  -2.21779736   0.26398940
H   -0.17277905  -2.61917569  -0.53391730
H    0.14399584  -2.91807204   0.91598265
O    2.57347852   0.60503237   1.57022147
H    2.67569213   1.35416666   2.15723257
H    3.43244625   0.18265480   1.56835365
O    0.16457614  -2.28736564  -2.82969487
H    0.73320158  -2.98732166  -3.15056638
H   -0.68031107  -2.45397115  -3.24759443
C   -2.92563543   3.06829119   2.31806392
H   -3.08468070   2.92607760   3.36657719
H   -3.83534175   2.87313008   1.78962694
H   -2.61770378   4.07701045   2.13761272
C   -1.83062150   2.10205514   1.82925681
N   -1.01533385   1.38264849   1.46531769
