19
Energy:   -387.50724366
Na  -0.30236098  -0.81320314  -0.00630872
O   -2.56659070  -0.91174450   0.55391312
H   -3.31751376  -0.81386686  -0.03154940
H   -2.94991652  -0.96174003   1.42958064
O    0.27408616  -1.03366497   2.26799171
H    0.18822612  -1.75207520   2.89468672
H    0.68204309  -0.32660814   2.76786533
O    1.34850633  -2.36201432  -0.57750512
H    1.60979585  -2.63954725  -1.45553422
H    1.97723209  -2.78729961   0.00564854
O   -0.87164222  -0.57784881  -2.28089973
H   -1.27523290  -1.16990531  -2.91557722
H   -0.71323832   0.22844979  -2.77184027
C    1.47562557   3.97046854   0.03020976
H    1.11811996   4.49116023  -0.83348584
H    2.54542803   3.95331707   0.01891310
H    1.13622709   4.46981023   0.91359283
C    0.93892971   2.52706571   0.01813324
N    0.53933525   1.45238670   0.00914172
