19
Energy:   -380.43668596
Na  -0.03249890  -0.53063869  -0.10779917
O   -1.39340301   2.39237061  -2.53095235
H   -2.18737764   2.35020540  -3.06392348
H   -1.09970667   3.30002694  -2.60927405
O   -1.68288874   0.94698852   0.62772819
H   -2.16480804   1.54875804   0.06040194
H   -1.85133566   1.26616870   1.51428417
O    0.48291696   0.45069824  -2.15094703
H   -0.15272596   1.12827317  -2.38134265
H    1.08192990   0.41996281  -2.89691665
O   -1.22396919  -2.48226852  -0.46110795
H   -2.12578037  -2.68539014  -0.21269289
H   -0.93501105  -3.24567427  -0.96105465
C    3.22911195  -1.09404542   3.71354847
H    2.71481906  -1.42265607   4.59242164
H    3.66666141  -0.13444585   3.89415369
H    3.99811352  -1.79596097   3.46687007
C    2.23277595  -0.99196388   2.54372202
N    1.49095852  -0.91595954   1.67273304
