19
Energy:   -381.23690653
Na  -0.29024977   0.11397076  -0.34385918
O   -1.83290932   1.07125666  -1.79048398
H   -2.43063142   1.80568978  -1.65059782
H   -2.01652418   0.77909850  -2.68332274
O   -0.09920479  -2.25828408  -0.30022279
H   -0.40179776  -2.76431449   0.45383462
H    0.23990769  -2.91441544  -0.90909569
O   -1.56013389  -2.17361293   2.75446200
H   -1.04150107  -2.48435176   3.49654907
H   -2.39748962  -2.62955851   2.83920194
O   -1.18191021   0.38388913   1.76840816
H   -1.33664156  -0.48006776   2.15033558
H   -1.35846604   0.99688070   2.48206159
C    3.86142326   2.54629804  -1.96368019
H    4.07300348   2.30994765  -2.98557670
H    4.68448066   2.24472196  -1.35006186
H    3.71091629   3.60108548  -1.86534302
C    2.58893375   1.80240330  -1.51759604
N    1.64150747   1.24853986  -1.18546611
