19
Energy:   -390.50883183
Na   0.39675544   0.29970545   0.54956379
O   -0.73273409   1.84030183  -0.75349684
H   -0.42930811   1.84926729  -1.66128764
H   -1.43409343   2.49122378  -0.72844599
O    1.62627873  -0.19920923  -1.34424366
H    1.35185488   0.30934700  -2.10732554
H    2.32854373  -0.76178384  -1.67068744
O    1.51138569   1.04213974   2.43711903
H    2.14734874   1.75204502   2.52553469
H    1.42484365   0.68595342   3.32135521
O    0.48283085   1.49929028  -3.24820151
H    0.99729640   2.20686429  -3.63665494
H   -0.01528483   1.13508120  -3.97995582
C   -2.40017800  -3.47867955   2.42581689
H   -1.77079592  -4.23359858   2.84875382
H   -2.96475202  -3.89616644   1.61843843
H   -3.06880782  -3.11049522   3.17566591
C   -1.53112448  -2.32119959   1.89990231
N   -0.88407464  -1.45940315   1.50833501
