19
Energy:   -380.35890957
Na   0.41904471   0.16411565   0.13905962
O   -0.71328292   2.20566382   0.24454692
H   -0.74342191   2.91809075  -0.39402285
H   -1.28944651   2.49353469   0.95264136
O   -0.83018390  -1.27450997   1.42969743
H   -1.46290292  -0.86748244   2.02149729
H   -0.99026067  -2.21421139   1.51669470
O    2.57662982   0.31913133   0.96198304
H    2.98284947  -0.19500774   1.65974981
H    3.26799080   0.91175547   0.66694325
O   -2.61349683   0.01851487   3.04663483
H   -2.50404230   0.28540017   3.95933620
H   -3.55941737  -0.07834916   2.93670964
C    1.29315320  -1.15811887  -4.67413255
H    1.73493573  -0.34689675  -5.21417611
H    0.37470372  -1.44141010  -5.14434073
H    1.96404035  -1.99166434  -4.67074423
C    1.01362080  -0.71826156  -3.22499929
N    0.80549622  -0.39076779  -2.14605372
