19
Energy:   -381.97301649
Na   0.51671427   0.37414479   0.47182653
O    1.80700453  -1.17139662  -0.65334276
H    2.26194251  -1.96939201  -0.38414649
H    1.91093017  -1.14515403  -1.60452237
O    1.36476975   1.34734169   2.41594274
H    0.99960762   1.16171326   3.28106155
H    2.06189357   1.98219925   2.58088549
O   -0.27835061   1.63828620  -1.29479290
H   -0.90526829   2.30689696  -1.57077428
H    0.22571812   1.44144633  -2.08435013
O    1.33762259   0.60745957  -3.34792749
H    0.91511221   0.17149188  -4.08796060
H    2.17118024   0.92144334  -3.69839530
C   -3.56646118  -1.91689167   2.35382297
H   -3.38228489  -2.35516144   3.31241511
H   -3.85763994  -2.68009427   1.66271096
H   -4.35024686  -1.19326350   2.43713781
C   -2.28438985  -1.22915202   1.84893954
N   -1.32982947  -0.71709858   1.47303088
