22
Energy:   -581.67790530
O    1.62112263   1.48051227  -0.16411232
H    2.57509849   1.52001542  -0.23194596
H    1.31552789   2.26589469  -0.61800456
O   -0.13633622  -2.57071137   2.14237800
H    0.46590005  -3.20347175   1.75102441
H   -0.32968800  -2.92779968   3.00917376
O    0.14463616   0.71842989   2.03734768
H    0.31941433   1.20218449   2.84460595
H    0.70583273   1.13365107   1.38245712
O    0.13469598  -0.85495868  -0.51489398
H    0.70702255  -0.10168325  -0.66066868
H    0.06242116  -1.27121950  -1.37380907
O   -0.06041528  -2.05350771  -2.95827626
H    0.57930816  -2.64270031  -3.35807353
H   -0.72775111  -1.93014598  -3.63331449
O   -2.61913551  -0.73077523   1.32487044
H   -3.10959018   0.07473344   1.48870528
H   -3.29057664  -1.38649809   1.13665198
O    0.81737286   3.74050833  -1.45305486
H    0.66178626   3.84827309  -2.39135727
H    0.80549361   4.63168191  -1.10391250
Li  -0.66394056  -0.89643354   1.26111542
