22
Energy:   -582.72385289
O   -1.57977283   1.61157059   2.06370310
H   -2.07671228   1.32353774   2.82941852
H   -1.39888714   2.53684895   2.22914843
O   -2.53930800   1.62178132  -1.03158415
H   -2.46059154   1.76420883  -0.08831856
H   -3.34000467   2.08470576  -1.27819648
O    1.48290306   1.28133650  -1.60731792
H    2.29154130   1.74089358  -1.38116897
H    1.05785304   1.84674301  -2.25220536
O    1.88452237  -1.88793593  -0.84768971
H    2.58947811  -2.35379076  -1.29741020
H    1.94324511  -2.18314312   0.06095555
O    0.06063083  -0.24053985   0.84731190
H    0.54044829  -0.75041836   1.50002237
H   -0.46364211   0.37400353   1.36083519
O    1.79809454  -2.22574123   1.95656256
H    1.31994968  -2.93443723   2.38709633
H    2.55737190  -2.07227729   2.51886014
O   -1.02813266  -0.37328125  -2.12738941
H   -1.53507272  -0.99593033  -2.64849569
H   -1.66234269   0.29524874  -1.86839688
Li   0.58129145  -0.39161866  -1.03569398
