22
Energy:   -587.76983573
O    1.24765312   1.76996699   3.50351868
H    2.11460276   2.09885891   3.74113240
H    0.64298252   2.26801621   4.05356620
O   -1.49799738  -2.55169042  -1.93452349
H   -1.37624305  -3.45421694  -1.63981412
H   -1.84034672  -2.63399678  -2.82461025
O    0.72508216  -0.54732384   2.16832088
H    0.89424979   0.27866288   2.62148763
H    1.12775106  -1.21351157   2.72535187
O    0.90554473  -0.64931163  -0.60718767
H    1.31153599   0.11842483  -1.00965964
H    1.11114039  -0.56897532   0.32421361
O    1.29094988   1.67354221  -2.17274752
H    1.83381427   1.56857838  -2.95410063
H    1.52353282   2.53776493  -1.83325360
O   -1.31550885   0.65994704  -2.11287900
H   -0.50242714   1.14529076  -2.25277703
H   -1.99500553   1.21445198  -2.49633744
O   -1.68867114  -0.88966782   0.85513553
H   -0.97287331  -0.76466191   1.47822368
H   -2.47254202  -0.95657544   1.40038929
Li  -0.99875834  -0.91558843  -0.98073085
