22
Energy:   -578.97074623
O   -0.84177838  -3.95585176   1.59639530
H   -1.48069754  -4.60069272   1.29276016
H   -0.54245144  -4.29365826   2.44050548
O    0.96820330   1.14752748  -1.56718144
H    1.13819514   0.20868673  -1.64407532
H    1.44181578   1.53811347  -2.30159661
O    1.40587782  -1.59746952  -1.70570265
H    2.27193010  -1.97918025  -1.56258657
H    1.02535627  -2.12290173  -2.40951809
O   -0.25033347  -1.48781446   0.55250878
H    0.33872217  -1.68754029  -0.17505902
H   -0.45497879  -2.34036074   0.93658816
O    0.87482827   1.92152463   1.56246715
H    0.57646737   1.36078154   2.27855360
H    1.73637128   2.23053973   1.84261918
O   -0.64579097   3.75431870  -0.58307013
H   -1.21088825   4.04605674  -1.29846220
H   -0.51192127   4.53699492  -0.04853417
O   -1.67869780   0.76933965   0.21192028
H   -1.32854626  -0.10740073   0.36988247
H   -2.62702824   0.66706830   0.29218111
Li  -0.12756165   1.90715808  -0.13239000
