22
Energy:   -583.86944291
O    0.81472102   1.79297173   1.68047349
H    1.67071415   2.21676808   1.61798949
H    0.24008712   2.46550376   2.04616243
O    0.39796414  -1.45641161   2.17574120
H    0.67937221  -1.41088585   3.08950745
H    0.19453712  -2.38079709   2.03305001
O   -1.76149384   0.47948607   1.31810800
H   -2.36437456   0.31981458   2.04424276
H   -2.31701234   0.47093198   0.53864801
O    1.90617042  -0.50053470  -2.66028585
H    2.12794524  -1.30694346  -3.12585291
H    2.21050682   0.20065427  -3.23643275
O   -0.37345566  -0.40955897  -1.00983203
H   -1.24137526  -0.20022400  -1.35497879
H    0.18924527  -0.44897173  -1.78316646
O   -3.07577900   0.36569485  -1.16918291
H   -3.74938825  -0.28503496  -1.36675098
H   -3.40522950   1.17707582  -1.55564783
O    2.23805665  -0.21594549   0.12103966
H    2.25538098  -0.32410082  -0.82987261
H    3.05051107  -0.62168986   0.42356431
Li   0.26290682   0.04712917   0.85101594
