22
Energy:   -588.12458625
O    1.48234844   1.31124281  -2.36591124
H    2.00564225   2.09037169  -2.55393685
H    1.80334576   0.65225669  -2.98148403
O   -1.23909579  -0.21175195  -1.52490760
H   -1.92805409  -0.39428074  -2.16385325
H   -1.29902899  -0.93039094  -0.89546511
O    0.17424017   2.39211780   2.45492766
H    0.94287957   2.80746132   2.84597124
H   -0.48763467   2.41318841   3.14609303
O    0.38334115  -4.25495577  -0.01271061
H    1.18190990  -4.56509077   0.41429768
H    0.09969440  -4.99106748  -0.55485074
O    0.69534617   0.22146737   0.71586040
H    0.23585454  -0.59559354   0.90953735
H    0.59651571   0.74646657   1.51011491
O   -0.43289447   2.80529344  -0.24569225
H   -0.90454868   3.61057814  -0.45850837
H   -0.29232617   2.85227643   0.69996361
O   -0.99536884  -1.98772743   0.58332855
H   -0.50324059  -2.77897169   0.36429852
H   -1.67934610  -2.28844032   1.18164177
Li   0.13912179   1.06598082  -0.96215259
