22
Energy:   -582.91705592
O    1.47514135   0.23419707   2.13065542
H    2.03698193   0.28320421   2.90406689
H    1.37400531   1.14356371   1.84948700
O   -2.07040878  -2.04615083  -1.08836559
H   -2.23310958  -2.17992011  -2.02210328
H   -2.65457970  -2.66609993  -0.65174298
O    1.39232121  -1.12509632  -0.28236385
H    2.11236842  -1.71800735  -0.49735309
H    1.63614120  -0.74808786   0.56300488
O   -0.82254342   1.23592725  -0.64688945
H   -0.23387027   1.78040580  -0.12416689
H   -1.66700282   1.68442563  -0.60251204
O    0.92339934   2.70643682   0.98010955
H    0.55149232   3.39166598   1.53542749
H    1.63589212   3.13916665   0.50965151
O   -0.21367369  -0.65404799  -2.75129933
H    0.36569288  -1.06333233  -3.39399098
H   -0.26568450   0.26197701  -3.02410863
O   -0.95903783  -0.88270331   1.39437129
H   -0.20102122  -0.54968474   1.87472667
H   -1.53384406  -1.24027336   2.07110854
Li  -0.56242857  -0.78664020  -0.65838905
