22
Energy:   -585.02187574
O   -0.56932312  -1.02677877   2.35170725
H   -0.57085183  -1.41146783   3.22820246
H   -1.04679628  -0.20305137   2.45031959
O   -0.69021820  -0.14603264  -2.23515075
H   -0.96301220   0.66839188  -1.81262503
H   -1.42478822  -0.37973271  -2.80262147
O    0.53867061  -2.07346952   0.08108282
H    0.60414921  -3.01767119   0.22400799
H    0.15636015  -1.73418693   0.89037750
O    1.56031150   0.91825671  -0.60670919
H    2.30458347   1.51953465  -0.63420305
H    0.83424276   1.44986933  -0.28045154
O   -0.89116062   2.00079700  -0.07624967
H   -1.22603066   1.82803927   0.80366435
H   -1.34103233   2.79952816  -0.35170537
O    2.38207976  -1.57656320  -2.46580310
H    2.25261221  -2.02840754  -3.29965362
H    3.31465213  -1.68234965  -2.27778751
O   -1.88352416   1.47226166   2.50385078
H   -2.83425420   1.43825380   2.60962274
H   -1.59514090   2.13073778   3.13589203
Li   0.95257367  -0.80124694  -1.34405948
