22
Energy:   -574.10092629
O   -1.05689221   0.57610797   0.84245731
H   -1.51305548   1.33819734   1.19934202
H   -1.73465194  -0.09556610   0.76677687
O   -3.03896279  -1.40119212   0.63721822
H   -3.86396159  -1.20662656   0.19252385
H   -3.29782998  -1.88027391   1.42442866
O    0.27814134  -0.09419424  -1.69568059
H   -0.15179835  -0.93035165  -1.51616877
H   -0.02673516   0.14966819  -2.56964471
O    1.65143771  -0.27253804   1.56070695
H    1.18920954  -0.72007652   2.26942853
H    2.55186944  -0.59133673   1.62252879
O    0.83242922   2.77040491   0.41256048
H    0.71008489   3.49960929  -0.19532495
H    1.18895677   3.17462404   1.20358946
O    2.79964067   0.91817684  -0.84020603
H    3.60096563   1.44106043  -0.86671821
H    2.84010008   0.37687231  -1.62861220
O   -1.03504675  -2.36030624  -1.03462267
H   -1.78420840  -2.17334325  -0.46890764
H   -1.14526860  -3.27803019  -1.28335094
Li   0.86897712   0.77223617   0.03595426
