22
Energy:   -582.17891796
O   -1.10181539   1.79338448   0.40942401
H   -1.70095841   2.04799965   1.11115801
H   -1.50609824   2.13634647  -0.38754795
O    1.29689986  -3.34799865  -0.58474579
H    2.12276900  -3.79988336  -0.41162093
H    0.77982964  -3.97729905  -1.08758894
O   -1.76060926   2.46323755  -2.23696085
H   -2.55093488   2.12277244  -2.65612759
H   -1.69087008   3.36430590  -2.55230849
O    0.35650909  -1.13697644   0.71111856
H   -0.15542059  -1.45553049   1.45454520
H    0.67249532  -1.93079482   0.27956678
O   -1.12482487  -1.95781710   2.85216722
H   -1.97556126  -2.39556135   2.82285131
H   -0.80114297  -2.12143112   3.73799583
O    2.09881352   1.45396546   0.89077790
H    2.49607228   2.32192527   0.81962249
H    2.67296714   0.97554829   1.48885522
O    0.52059445   0.86201512  -1.89306636
H    0.96294903   0.51873074  -2.66941043
H   -0.20063802   1.38692715  -2.24023051
Li   0.48847132   0.68272864   0.06803938
