22
Energy:   -582.91067210
O   -1.72905550   1.33987990   0.88188014
H   -2.57660097   1.68202379   1.16619702
H   -1.81535208   1.24276823  -0.06646266
O    1.15448164   2.06762098   1.93288358
H    1.04354433   2.93826942   1.55092015
H    1.90875602   2.15553543   2.51561256
O   -1.79363095   0.88570298  -1.77715033
H   -2.22405342   1.21551729  -2.56594110
H   -1.41110310   0.04986913  -2.04414483
O    0.60693032  -0.67431916   0.26942914
H    1.47702369  -0.76612952  -0.11882364
H    0.01108478  -1.02922486  -0.39029950
O    2.27952314  -1.40622859  -2.07343203
H    2.83122902  -2.18823057  -2.09147014
H    2.72067824  -0.78780478  -2.65581164
O   -0.36168015  -0.42230676   3.27403530
H   -0.23339096  -1.36707215   3.35884146
H   -0.70264249  -0.14901338   4.12567329
O   -0.50829415  -1.53934196  -2.11641892
H   -0.84202999  -2.33996095  -2.52121697
H    0.43283986  -1.55687622  -2.29017502
Li  -0.08594718   0.57783129   1.60430416
