22
Energy:   -588.16765886
O   -1.80212691   0.66890987   0.56006294
H   -1.14365111   0.71347806   1.25335592
H   -2.60160215   1.00333384   0.96655007
O    0.48617384  -1.43216792   3.98790318
H    1.18393447  -2.07255284   4.12671639
H   -0.10033663  -1.55055762   4.73504521
O   -0.67071118   1.12267173  -2.54190586
H   -1.08166801   1.67889289  -3.20369463
H    0.26822496   1.27317532  -2.65135648
O   -1.83054267  -1.80416162  -1.61043128
H   -2.64067564  -2.01202642  -2.07595105
H   -1.41804961  -2.65389451  -1.45539794
O    0.46392990   0.56856207   2.14561630
H    0.46322660  -0.14474423   2.78391519
H    0.87737134   1.30022950   2.60383111
O    2.12261353   1.19623665  -2.38363720
H    2.65330499   0.72874786  -3.02865863
H    2.60743391   2.00395664  -2.21402153
O    0.82496912  -0.39519722  -0.44089242
H    0.96193681  -0.12590615   0.46737737
H    1.49820291   0.07338985  -0.93426273
Li  -1.01568962  -0.11205804  -1.05522520
