72
Energy:   -419.74602745
O   -3.78630188  -0.08419570   0.43634591
H   -3.40453360  -0.91397812   0.75904917
C   -4.06580503  -0.24745141  -0.94487071
H   -4.49514413   0.69622122  -1.29219635
H   -4.79743693  -1.04732126  -1.13903639
H   -3.16213005  -0.45104965  -1.54043483
O   -0.32946998  -0.19537411  -1.93116455
H   -0.09185952   0.64066219  -2.35895872
C   -0.39240338   0.03898479  -0.53343458
H   -0.66113329  -0.91275140  -0.06710030
H   -1.15893265   0.78119599  -0.26079427
H    0.57188770   0.36487391  -0.11305816
O    0.37298478   2.40702965  -2.87442593
H   -0.07203217   2.95186460  -2.20843940
C   -0.07882664   2.83217806  -4.15021943
H    0.43222961   2.20823387  -4.88846083
H    0.17055796   3.88393811  -4.36089797
H   -1.16388710   2.69898783  -4.28319121
O   -2.53013793  -2.43438741   1.34871283
H   -1.66089505  -2.37169396   1.77168993
C   -3.36436200  -3.21190354   2.19255679
H   -4.33922480  -3.27244806   1.70116888
H   -3.50968457  -2.75558557   3.18423850
H   -2.98889441  -4.23752433   2.33363621
O   -2.94387769   2.57372625   0.76738405
H   -3.28279694   1.67210042   0.66429239
C   -3.89584002   3.30790359   1.52056739
H   -3.49834997   4.32086939   1.62727799
H   -4.05074264   2.89394849   2.52924161
H   -4.87386048   3.37604201   1.01895952
O   -0.04810422  -2.06618246   2.57204549
H    0.18531193  -1.18720074   2.90570897
C    1.09985127  -2.60351849   1.93486266
H    0.81939389  -3.59347285   1.56497184
H    1.95075441  -2.72479078   2.62336408
H    1.43131796  -1.99940238   1.07582198
O    0.66865845   0.57952820   3.17733411
H    1.35741553   0.92900187   2.59260758
C   -0.44074786   1.46117097   3.11057009
H   -1.20708950   1.05266354   3.77489484
H   -0.86838854   1.53063042   2.09810963
H   -0.19698135   2.47826797   3.45534380
O    0.83742878  -2.75899755  -1.74988969
H    0.40023229  -1.90344561  -1.87363695
C   -0.16698427  -3.71743109  -1.45818207
H    0.34272274  -4.67506939  -1.32175318
H   -0.89572170  -3.83202371  -2.27585414
H   -0.71706522  -3.48849944  -0.53201870
O    2.74620454   1.68721162  -1.49289356
H    2.02146386   1.98241936  -2.06388096
C    3.25685297   0.47980062  -2.03504727
H    4.07217275   0.16130434  -1.37983817
H    3.66479187   0.60836765  -3.04985450
H    2.50601324  -0.32537102  -2.06179918
O    3.42203741  -2.65698855  -0.63161192
H    2.53827452  -2.73927205  -1.01970451
C    4.29080977  -3.51515019  -1.35364168
H    5.28167623  -3.41010959  -0.90349134
H    4.36886978  -3.24355367  -2.41802850
H    3.99559643  -4.57394347  -1.28594231
O   -0.84414627   3.70228411  -0.72913204
H   -1.59455262   3.39401088  -0.19971614
C    0.24506561   3.91928716   0.15351224
H    1.08162788   4.26609160  -0.45916668
H    0.56037787   3.00120665   0.67359270
H    0.03248678   4.69134542   0.90949743
O    2.65514189   1.31222852   1.30607670
H    2.75432136   1.48769547   0.35855464
C    3.66110133   0.38429052   1.67958768
H    3.53487874   0.19784405   2.74953664
H    4.67891380   0.77272724   1.51849139
H    3.56891849  -0.57805103   1.15216147
