72
Energy:   -417.29371715
O    2.86171953  -3.23586617  -0.46382563
H    3.02571417  -2.58995136   0.23925550
C    3.18936768  -2.61999715  -1.69909314
H    2.99884264  -3.36122062  -2.47997289
H    4.24869843  -2.32512170  -1.75945999
H    2.56961523  -1.73453526  -1.91037841
O    0.01272230   3.50979382  -2.13492430
H    0.63449889   2.94825440  -2.62122733
C   -1.27942036   2.94056374  -2.27232239
H   -1.96727969   3.58542205  -1.71870474
H   -1.34491835   1.92682035  -1.84710283
H   -1.61728552   2.90054045  -3.31971086
O    1.81405173   1.53420792  -3.06991387
H    1.32602857   0.79021577  -2.68685728
C    2.98798143   1.72301166  -2.29610771
H    3.52569701   2.56455557  -2.74124927
H    3.65351237   0.84574925  -2.31212528
H    2.76951861   1.97431572  -1.24639461
O    2.45591313   1.42134497   1.87292746
H    1.88823985   2.07862118   1.44379075
C    3.69370753   2.04857572   2.16785182
H    4.32092258   1.29430721   2.65072397
H    3.58575564   2.89745047   2.86105841
H    4.21736692   2.40123191   1.26552606
O   -1.49558305  -2.50202454   1.68640782
H   -0.93481440  -3.04758646   1.11516008
C   -2.84621219  -2.76280740   1.33952599
H   -3.46405720  -2.14027625   1.99237184
H   -3.13123497  -3.81426774   1.50067969
H   -3.07629620  -2.49643191   0.29603053
O   -3.10443459   0.96926441   0.17162980
H   -2.62968873   0.77257638   0.99282007
C   -4.18342204   1.83194243   0.49428516
H   -4.70736618   2.04335430  -0.44180926
H   -3.84866967   2.78994139   0.92201894
H   -4.90162032   1.37229364   1.19120092
O    0.83188423   3.28125734   0.54714210
H    0.56185060   3.43400132  -0.37055850
C   -0.29699023   3.51795715   1.37306547
H    0.02475262   3.34143507   2.40302018
H   -1.13378515   2.83598989   1.15518416
H   -0.66537838   4.55342201   1.30320829
O    0.15355124  -3.93455232  -0.08763195
H    1.10254128  -3.81036166  -0.23735786
C   -0.47835765  -3.99298118  -1.35641522
H   -1.54645406  -4.13308922  -1.16926559
H   -0.12541085  -4.83750826  -1.96877125
H   -0.35229180  -3.06594756  -1.93735705
O    0.18342004  -0.38583197  -1.82386983
H   -0.74016035  -0.65962536  -1.92614257
C    0.43764925  -0.23895447  -0.43594753
H    1.48205861   0.06968478  -0.33880801
H    0.30616999  -1.17910057   0.12227810
H   -0.19171289   0.53404986   0.03218164
O    2.99312161  -1.33635406   1.62649917
H    2.82740625  -0.38989557   1.74969828
C    2.20415602  -2.03834516   2.57374547
H    2.40291416  -3.10261517   2.42107019
H    1.12459304  -1.86955565   2.43651857
H    2.46555043  -1.78801706   3.61383496
O   -1.69070064   0.18010922   2.46640908
H   -1.59190104  -0.75985689   2.25398114
C   -0.75555604   0.49139747   3.48677077
H   -0.88038351   1.55362080   3.71389388
H    0.28720933   0.32993979   3.17157382
H   -0.93092889  -0.07856508   4.41260250
O   -2.59807292  -0.86987869  -1.89182321
H   -2.87336775  -0.25128869  -1.19901555
C   -3.30933976  -0.53720578  -3.07333157
H   -2.98731341  -1.24357150  -3.84328722
H   -3.08844625   0.48093641  -3.43022073
H   -4.39984788  -0.63496741  -2.95495915
