72
Energy:   -416.89676130
O    0.98393440  -3.57046189  -0.03941009
H    0.33000031  -3.50712413  -0.75129617
C    1.61319787  -4.83755460  -0.14446879
H    2.34656737  -4.89216458   0.66464932
H    2.14709018  -4.96940263  -1.09859270
H    0.90753411  -5.67420059  -0.02265139
O    2.10271211   0.46522537   3.08963576
H    1.76658060  -0.40923890   2.84315832
C    1.79182628   0.67595370   4.45765526
H    2.17742519   1.66522943   4.71867673
H    2.26914574  -0.06238054   5.12083398
H    0.70811297   0.66942093   4.65335945
O   -1.39597259   0.70982632  -3.45838801
H   -0.70921801   0.03868362  -3.58628993
C   -0.74964979   1.96351977  -3.30655479
H   -1.53762364   2.70791212  -3.16350775
H   -0.16549699   2.25112007  -4.19471520
H   -0.08576636   1.99611250  -2.42850363
O   -3.45889223   0.58489870  -1.57681783
H   -2.80148874   0.66310158  -2.28401528
C   -4.74367202   0.67541555  -2.17152899
H   -5.47205298   0.58545617  -1.36106387
H   -4.93560683  -0.13299873  -2.89430469
H   -4.91172755   1.63976561  -2.67607199
O    1.04256762  -2.02174266   2.29635891
H    1.08092328  -2.58830655   1.51152933
C   -0.26378172  -2.12660019   2.83948881
H   -0.28951317  -1.48236365   3.72254169
H   -0.51114476  -3.15156277   3.15735759
H   -1.04317271  -1.78139188   2.14223832
O    2.29688168   0.25193072  -1.68100654
H    2.23413201   1.18465408  -1.42701269
C    2.77422057  -0.46922437  -0.55645476
H    2.83891578  -1.51764995  -0.85994042
H    2.09590879  -0.40551751   0.30876885
H    3.77660331  -0.14386895  -0.23684558
O    1.62012530   2.97034493   1.89099626
H    1.82356047   2.14631420   2.35791248
C    0.48753120   3.55150568   2.51710851
H    0.27213909   4.47851739   1.97883281
H    0.66864707   3.80436273   3.57353536
H   -0.40531645   2.90922188   2.46168360
O    1.94057144   2.92057904  -0.87676724
H    1.80397697   3.02968688   0.07605001
C    3.00927890   3.77179577  -1.25864185
H    3.14970508   3.63641552  -2.33448472
H    3.95570950   3.51766572  -0.75618352
H    2.79249056   4.83557882  -1.07385612
O   -2.01449980   0.48224897   0.84824733
H   -2.59539497   0.54621793   0.07565943
C   -0.68429803   0.69982467   0.40580205
H   -0.04333988   0.62428483   1.28838439
H   -0.54098751   1.69847408  -0.03571667
H   -0.35029110  -0.05403831  -0.32420297
O    0.70425649  -1.18616913  -3.43801556
H    1.31950320  -0.73605421  -2.84027706
C    1.47360628  -1.84573246  -4.43079494
H    0.76508842  -2.34744140  -5.09545710
H    2.14626300  -2.60935375  -4.00985219
H    2.07448472  -1.14881652  -5.03579956
O   -0.82746033  -3.17682252  -2.15029705
H   -0.38507467  -2.49958402  -2.68327567
C   -2.02194244  -2.60867877  -1.63750182
H   -2.50759905  -3.38479152  -1.03977959
H   -2.72120321  -2.30107322  -2.43071713
H   -1.83439263  -1.74208041  -0.98434817
O   -1.81063989   0.88936750   3.64338563
H   -1.84825213   0.74426412   2.68633099
C   -3.14027251   0.85388080   4.13669240
H   -3.07949571   1.01899454   5.21582577
H   -3.63100149  -0.11729372   3.96703849
H   -3.77497597   1.64391273   3.70567221
