72
Energy:   -418.26505905
O    1.44354177  -0.35928210  -1.50677589
H    2.16218798  -0.79069985  -1.02113237
C    0.39529248  -0.10247423  -0.58603873
H   -0.40579325   0.38350488  -1.14957325
H    0.69999812   0.57473753   0.22717467
H   -0.01199432  -1.02232918  -0.13797436
O    0.55794931   0.93132553   3.10666745
H    0.29970553  -0.00017557   3.04311337
C   -0.58860083   1.71631848   2.82076075
H   -0.27999380   2.76248816   2.89676020
H   -1.40790604   1.54915697   3.53740106
H   -0.97655236   1.54783965   1.80395899
O   -0.00305034  -0.09265059  -3.93488617
H    0.53881880  -0.20448751  -3.13971725
C   -0.33067399   1.28344010  -4.04245443
H   -0.94100427   1.39159197  -4.94316822
H    0.55776479   1.92470375  -4.15306541
H   -0.91848748   1.64883847  -3.18587014
O    2.60155954   2.46667880   1.97496408
H    1.93274443   1.93348926   2.42973714
C    3.61254067   2.78485049   2.91794749
H    4.35759672   3.38546180   2.38913491
H    4.11636486   1.89147271   3.31896451
H    3.23311241   3.37898462   3.76400668
O   -2.87184827  -1.86092435  -1.17044925
H   -2.93762003  -1.01000955  -0.71214657
C   -3.08278909  -1.62263994  -2.55293190
H   -3.00529417  -2.59131035  -3.05408795
H   -2.32656892  -0.95122838  -2.98895359
H   -4.08026704  -1.20714307  -2.76548168
O   -2.94736942   0.64462975   0.09436862
H   -2.47418580   1.45338586  -0.15146488
C   -4.09500355   1.02596119   0.83602622
H   -4.61624057   0.10317538   1.10484498
H   -4.78863486   1.65266383   0.25387785
H   -3.84252425   1.55879364   1.76614509
O    1.23956392   3.49093108  -0.26049942
H    1.77697431   3.21409900   0.49645326
C    1.99827685   3.25593981  -1.43594298
H    1.37821492   3.57322580  -2.27875850
H    2.24662238   2.19225491  -1.57621512
H    2.93315791   3.83740117  -1.46197029
O    1.19713762  -3.64691207   0.99022583
H    0.55786046  -3.73272639   0.26746454
C    1.59465011  -4.95446628   1.37077754
H    2.31454551  -4.83930124   2.18562281
H    2.08866518  -5.50340861   0.55383889
H    0.75494810  -5.56346931   1.74063313
O   -0.11655603  -1.75849948   2.65236613
H    0.37504271  -2.44327562   2.17504487
C   -1.49471398  -1.94270246   2.37079251
H   -2.03370575  -1.16326504   2.91618262
H   -1.87131844  -2.92005311   2.71098675
H   -1.72823378  -1.83387219   1.30009097
O    3.19658405  -1.78674560   0.22809018
H    2.62318296  -2.50090715   0.54369711
C    3.44967916  -0.92189778   1.32377029
H    4.09679949  -0.12340323   0.95077308
H    3.97227900  -1.42615225   2.15165565
H    2.53251699  -0.46015456   1.72174526
O   -0.71634267  -3.68588789  -1.02824271
H   -1.50958633  -3.13601331  -1.11086067
C   -0.01828800  -3.62248061  -2.26162545
H    0.87220197  -4.24721753  -2.15109676
H    0.30988466  -2.60163215  -2.51252075
H   -0.60812911  -4.01493048  -3.10474341
O   -1.48280088   2.93293565  -0.59182420
H   -0.54242352   3.14036650  -0.48653351
C   -2.09727993   4.03641440  -1.23779936
H   -3.15584193   3.78604484  -1.34846455
H   -1.68453167   4.22561331  -2.24110389
H   -2.02581099   4.96600973  -0.65169184
