72
Energy:   -418.27042244
O    2.34487892  -0.61789069  -2.90949563
H    2.73058501  -1.15067107  -2.19830006
C    2.86911420   0.69545590  -2.79621774
H    2.42436448   1.28205373  -3.60466432
H    3.96367497   0.72796251  -2.91308248
H    2.60718763   1.17695427  -1.84105748
O    1.12311760   0.85753085   0.93060908
H    1.14811568   1.66149988   0.39076450
C    0.38400188  -0.11893729   0.21454226
H    0.36570274  -1.01780541   0.83678534
H    0.84747375  -0.38053619  -0.74958283
H   -0.65693704   0.18817977   0.02771986
O   -0.45598462  -0.33673308  -3.26547339
H    0.50605576  -0.44972313  -3.25386185
C   -0.72563774   1.03008742  -3.53309753
H   -1.81347283   1.13967382  -3.54262799
H   -0.34115076   1.35555585  -4.51239187
H   -0.32155099   1.70250031  -2.76021194
O    0.44386498  -0.20274638   3.45578381
H    0.73092023   0.16858388   2.60835452
C    1.59562521  -0.36038300   4.26888456
H    1.25425850  -0.77953859   5.21928582
H    2.10166669   0.59484958   4.47919406
H    2.33130821  -1.05498224   3.83405153
O   -2.37524944  -1.45492690  -1.54927166
H   -1.79516296  -1.03983099  -2.20472442
C   -3.38116171  -0.51464078  -1.20789750
H   -4.02561754  -0.99839995  -0.46888535
H   -4.00482670  -0.22764456  -2.06897385
H   -2.97079528   0.40162988  -0.75532176
O   -2.53556540   1.88452147   1.53748460
H   -2.58687996   1.00058669   1.93048511
C   -1.74767965   2.69262862   2.39698018
H   -1.70018650   3.68451606   1.93938984
H   -0.71802286   2.31791113   2.50730256
H   -2.18763197   2.80046358   3.40076845
O    0.88610277   3.13605239  -0.73107229
H   -0.06657389   3.17338084  -0.90264457
C    1.30551554   4.43568745  -0.34691682
H    2.38068782   4.37564106  -0.15748556
H    0.81542871   4.78546642   0.57517152
H    1.13916542   5.18654250  -1.13515642
O    1.57550165  -3.53773500   1.05676197
H    0.79594916  -3.59793996   0.48483842
C    1.13839375  -3.69058290   2.39769745
H    2.02880529  -3.62019487   3.02833049
H    0.66584789  -4.66806182   2.58212280
H    0.43647202  -2.90107631   2.70876425
O   -2.27531050  -0.63746065   2.78253947
H   -1.37510946  -0.59592683   3.13797767
C   -2.44058722  -1.90952629   2.17667945
H   -3.45968206  -1.93933037   1.78165712
H   -2.32732390  -2.73916286   2.89197793
H   -1.74487235  -2.07530951   1.33925836
O    3.27732207  -2.05802473  -0.64940623
H    2.75687707  -2.62629623  -0.06235617
C    4.07568036  -1.21421230   0.16492687
H    4.65529432  -0.58095447  -0.51221224
H    4.78234041  -1.77630346   0.79537308
H    3.47533830  -0.55882987   0.81518883
O   -0.57961823  -3.46928862  -0.73912364
H   -1.29581512  -2.85983659  -0.97161775
C    0.15571653  -3.74041982  -1.92162288
H    0.95828364  -4.42819707  -1.64174133
H    0.61504578  -2.83735421  -2.35320889
H   -0.45403941  -4.22585049  -2.69965379
O   -1.91520209   3.05871176  -0.92857113
H   -2.18219750   2.65214565  -0.09081178
C   -3.07985138   3.59100865  -1.53913305
H   -2.76106856   4.04504096  -2.48132060
H   -3.56061358   4.37189676  -0.92933079
H   -3.83030574   2.81854586  -1.76912614
