72
Energy:   -416.36709568
O    1.85003541  -0.00825291  -0.58120550
H    2.24600201  -0.59456318   0.08051498
C    0.49569352   0.20171116  -0.21486289
H    0.06487927   0.86406514  -0.97062177
H    0.39148166   0.69025066   0.76658827
H   -0.09104873  -0.73015523  -0.20320586
O   -1.01518759   0.92769460   3.21120701
H   -1.41651279   0.13292194   2.82950321
C   -1.87527673   2.02075780   2.93193426
H   -1.40823334   2.90760451   3.36880791
H   -2.87290422   1.90295960   3.38319948
H   -2.00097414   2.19791160   1.85230746
O    1.71038070   1.25194987  -3.10857006
H    1.76309282   0.82007269  -2.24304893
C    3.02927872   1.34965284  -3.62188860
H    2.95151615   1.83831941  -4.59689791
H    3.50199903   0.36606012  -3.76973379
H    3.68905730   1.96017001  -2.98569811
O    1.40793258   2.31745848   2.93311115
H    0.61018902   1.79616724   3.10713398
C    2.10526212   2.45985540   4.16029835
H    3.00086743   3.04936037   3.94614838
H    2.42500564   1.49419196   4.58224092
H    1.51853920   2.99518609   4.92315784
O   -1.92024864  -1.45895236  -2.32664544
H   -2.35027176  -0.83201987  -1.72626303
C   -1.44871339  -0.72762614  -3.44706957
H   -0.96724009  -1.44888470  -4.11299356
H   -0.70303312   0.03527116  -3.17370906
H   -2.26019355  -0.23579047  -4.00597471
O   -2.96888336   0.45472465  -0.52335119
H   -2.57006838   1.33208440  -0.62138046
C   -4.37391245   0.62832534  -0.43230259
H   -4.80726831  -0.36946817  -0.32232070
H   -4.80468797   1.09005274  -1.33453183
H   -4.67250348   1.22840598   0.44149598
O    0.65218447   3.64541708   0.55775005
H    0.97637526   3.26456649   1.38737432
C    1.74771671   3.71535833  -0.34083279
H    1.36498249   4.14650942  -1.26986909
H    2.17124387   2.72562866  -0.57286137
H    2.55893033   4.36284533   0.02723023
O    1.05607387  -4.21320521   0.79348425
H    0.68114528  -4.00658118  -0.07551422
C    0.95148107  -5.61494130   0.98513510
H    1.37828948  -5.83028705   1.96846921
H    1.51600582  -6.19005099   0.23457665
H   -0.09162894  -5.96804404   0.98097635
O   -2.23419407  -1.12520177   1.72105146
H   -2.54773396  -0.69077812   0.91396280
C   -1.95308444  -2.47818832   1.40021110
H   -1.60117740  -2.95265342   2.32028148
H   -1.16280994  -2.57958835   0.63997325
H   -2.84254421  -3.02630856   1.05206908
O    2.56131239  -1.90936815   1.41315526
H    2.13166008  -2.76899477   1.29123625
C    2.06161795  -1.34501457   2.61496402
H    2.55589380  -0.37738785   2.73692762
H    2.28999687  -1.95899849   3.50020080
H    0.97456591  -1.17151145   2.58347036
O   -0.00506719  -3.44349389  -1.69036401
H   -0.69582361  -2.82604052  -1.97326007
C    1.17682431  -3.12516607  -2.40753461
H    1.94444746  -3.83004689  -2.07680372
H    1.53792351  -2.10549221  -2.20101608
H    1.05670576  -3.23736778  -3.49646052
O   -1.68677366   2.91525118  -0.83543287
H   -0.91123785   3.24816322  -0.35989417
C   -1.48557163   3.16740026  -2.21690757
H   -2.36821409   2.78625376  -2.73763287
H   -0.60131121   2.64891069  -2.61943633
H   -1.39225504   4.24093382  -2.44405297
