72
Energy:   -416.63208269
O    3.59164538   2.02941869   0.79285835
H    3.06397812   2.25964168   0.01376407
C    4.28205807   0.82418250   0.50429324
H    4.87133591   0.57938664   1.39216250
H    4.97311327   0.92343161  -0.34739311
H    3.60158173  -0.01803931   0.30331639
O    2.65293837  -1.49365514  -2.05442748
H    2.25908734  -1.51084340  -1.16954941
C    3.74764013  -2.39596307  -2.05592092
H    4.17958911  -2.36417682  -3.05986062
H    3.44359472  -3.43375897  -1.84780220
H    4.53279427  -2.11316067  -1.33735769
O   -1.05277913   2.65081261  -0.84905243
H   -1.33084537   2.05011911  -1.55634993
C   -1.92343288   2.45044045   0.25292163
H   -1.59609210   3.13469999   1.04039994
H   -1.87662823   1.42464035   0.65081709
H   -2.97293925   2.68268467   0.01338807
O    1.49354716   2.69525318   2.57986897
H    2.28481835   2.41718552   2.09510968
C    1.14308952   3.99214560   2.12403647
H    0.25010494   4.28997689   2.68023811
H    0.89958754   4.01409104   1.05025693
H    1.93009511   4.73786313   2.31718126
O   -0.91504390   1.55392051   3.43366096
H   -0.07445745   1.93843199   3.14385306
C   -1.11285675   1.92346459   4.78896204
H   -2.06387142   1.48217637   5.09931830
H   -1.18140155   3.01392145   4.92674007
H   -0.32442109   1.53804356   5.45424181
O   -1.54743149   0.84177973  -2.93351766
H   -0.99759189   0.06929250  -3.13191921
C   -1.77237523   1.53415678  -4.15111698
H   -2.39314658   2.40117434  -3.90943809
H   -2.31118133   0.92481546  -4.89352419
H   -0.84072095   1.89895804  -4.61124487
O    1.75033673   2.66394366  -1.22797279
H    0.80037367   2.77581917  -1.07474970
C    1.90838082   1.91342919  -2.42140645
H    2.98403285   1.79671633  -2.57900089
H    1.48747902   2.42234296  -3.30267019
H    1.46221556   0.90883983  -2.35421927
O   -2.90008134  -1.93347606   0.15333568
H   -2.85754758  -1.44686949   0.98989303
C   -3.58334794  -1.11771389  -0.78486079
H   -3.62230300  -1.68091182  -1.72122386
H   -3.06323274  -0.16679531  -0.97982588
H   -4.61692653  -0.89208425  -0.47894595
O    0.16452600  -1.33690287  -3.40324610
H    1.07406764  -1.40540736  -3.07695725
C   -0.58059752  -2.39756052  -2.82676535
H   -1.60239538  -2.30539626  -3.20481310
H   -0.61712260  -2.34317363  -1.72745406
H   -0.19889548  -3.39008597  -3.11307657
O    1.27328445  -1.64899974   0.36579643
H    0.66977998  -2.37354149   0.58770827
C    0.57345532  -0.43062602   0.56159848
H    1.26770422   0.37483241   0.30715714
H    0.25240820  -0.28762401   1.60527300
H   -0.30993784  -0.33827814  -0.08945123
O   -0.73019651  -3.62640280   0.67358115
H   -1.53129671  -3.13053217   0.44825014
C   -1.04742291  -5.00774607   0.61200239
H   -0.13419608  -5.55154126   0.86849559
H   -1.36387129  -5.32697709  -0.39334795
H   -1.83012301  -5.29676139   1.33077080
O   -2.45036471  -0.63321379   2.59837353
H   -1.97716247   0.15656159   2.89963382
C   -1.97614903  -1.73449964   3.35654418
H   -2.51948863  -2.61556462   3.00441949
H   -2.16908428  -1.62289398   4.43501416
H   -0.89968333  -1.91741709   3.21322593
