72
Energy:   -416.76084754
O    3.19719292  -0.04213653  -2.53160197
H    2.37980167  -0.10630525  -3.04752561
C    4.08370945  -1.04418825  -3.00331646
H    4.99903076  -0.95774116  -2.41154031
H    4.34914794  -0.91210459  -4.06391706
H    3.68520907  -2.06199687  -2.86900199
O    2.16635903  -0.27117985   0.09005219
H    2.62899346  -0.21172607  -0.75898133
C    0.78495576  -0.44261251  -0.18357094
H    0.27887033  -0.50773320   0.78344615
H    0.57375364  -1.36775506  -0.74239315
H    0.35301037   0.40485509  -0.73854767
O    0.70828437  -0.32140592  -3.78576394
H   -0.03333651  -0.87708293  -3.50354982
C    0.20069073   0.97955256  -4.03554286
H    1.04902568   1.59229698  -4.35233505
H   -0.23968907   1.44354325  -3.13913023
H   -0.55119115   0.99543884  -4.84002941
O    0.80717490   3.28602006   1.91521674
H    1.25528115   2.51009992   2.28341777
C   -0.55690794   3.21764129   2.29880000
H   -1.04674589   4.09891141   1.87582606
H   -0.69319531   3.24270234   3.39130860
H   -1.06485599   2.32308500   1.90569040
O   -1.44127098  -1.83165609  -2.75131722
H   -1.45146426  -2.39360146  -1.96230723
C   -2.61482722  -1.03495472  -2.72751723
H   -2.58728426  -0.40823294  -3.62303183
H   -2.66155752  -0.37284117  -1.84876854
H   -3.53730024  -1.63562174  -2.75945457
O   -3.11119962   0.73726756   1.29124652
H   -2.69859045   1.11560059   0.50065114
C   -2.99749708  -0.67402686   1.20262628
H   -3.46718095  -1.08405911   2.10082215
H   -1.95083771  -1.01563513   1.17843359
H   -3.51861807  -1.08838024   0.32540252
O   -1.86179409   2.01050550  -0.92481533
H   -0.99210034   2.43130610  -0.99540500
C   -2.83760577   2.97663308  -1.28107765
H   -3.81105242   2.48604969  -1.19613792
H   -2.72438235   3.33349842  -2.31674406
H   -2.83585453   3.85012297  -0.61041403
O   -0.20081227  -3.08152276   2.10033562
H   -0.14949579  -2.38538166   2.77203306
C    1.11728648  -3.55003137   1.86443490
H    1.04111824  -4.33347654   1.10555594
H    1.57984358  -3.98849857   2.76252441
H    1.78511196  -2.76423534   1.47802702
O    0.12890532  -0.87067214   3.80639497
H    0.79251964  -0.22162737   3.52930258
C   -1.00204249  -0.15556016   4.27767586
H   -1.73956451  -0.90168598   4.58564133
H   -1.45974320   0.47634993   3.50051627
H   -0.77217540   0.47720697   5.14919420
O    2.04752654   0.84837254   2.64131294
H    2.13952863   0.44343793   1.76610619
C    3.34930570   1.00024600   3.18430396
H    3.22719881   1.45760671   4.16989834
H    3.98847331   1.66112353   2.57810019
H    3.86985527   0.03878979   3.31624119
O   -1.49549240  -3.32471404  -0.37233588
H   -1.05179885  -3.28105165   0.48769488
C   -2.24427501  -4.52906498  -0.40971475
H   -2.73748371  -4.56220600  -1.38497474
H   -3.02278443  -4.57008431   0.36811418
H   -1.61207532  -5.42592668  -0.31622694
O    0.64440531   3.29022127  -0.89336204
H    0.73672681   3.40392096   0.06422472
C    1.94690600   3.14972973  -1.43768535
H    1.82442688   3.02264177  -2.51672785
H    2.47767921   2.26698442  -1.04804726
H    2.57677421   4.03695498  -1.26775967
