72
Energy:   -416.75769895
O   -0.83637217   2.60683189   0.57665207
H   -0.26652590   2.56984124  -0.20586323
C   -1.78898372   1.56153619   0.46519848
H   -2.42254695   1.61773650   1.35453776
H   -1.32414588   0.56351132   0.43971336
H   -2.43432431   1.66701559  -0.42090927
O    0.71806067   1.84948286   2.80588438
H    0.13813466   2.19852154   2.11286123
C   -0.10622953   1.37746919   3.85958384
H    0.56296238   0.98788527   4.63152410
H   -0.77465114   0.56129462   3.54359496
H   -0.71917822   2.17413090   4.30947422
O    3.25578719   0.76668565   2.30793983
H    2.39327757   1.13093665   2.55657940
C    4.24058977   1.73722874   2.62534140
H    5.20576308   1.31074496   2.33891990
H    4.27627741   1.97082594   3.70095103
H    4.10480432   2.67829408   2.06970153
O   -4.59634868  -0.41232845   0.67041480
H   -4.18947072  -0.58240123  -0.19210990
C   -5.60202294   0.57101870   0.48553262
H   -6.04996405   0.75059068   1.46664825
H   -6.39933695   0.24048399  -0.19843705
H   -5.19944322   1.52637067   0.11403631
O   -2.62794387  -1.15652711   2.51916651
H   -3.36074782  -0.85828043   1.96017584
C   -3.12785780  -2.16542739   3.38214974
H   -2.28963087  -2.49007429   4.00461676
H   -3.50711964  -3.04300518   2.83552830
H   -3.92533955  -1.79913179   4.04745248
O    0.91841653   0.23304001  -3.61822452
H    1.44126898  -0.44162497  -3.16010253
C    1.59011207   0.55107717  -4.82661652
H    0.98775193   1.31220474  -5.32993779
H    1.68187341  -0.31359594  -5.50241057
H    2.59523920   0.96804263  -4.65739304
O   -0.32556429  -2.35990369   1.39596531
H   -1.10959830  -1.95489591   1.79556841
C    0.79414436  -1.55838325   1.73706833
H    1.66844450  -2.02880740   1.27904475
H    0.96456567  -1.50629925   2.82381630
H    0.71610238  -0.53111731   1.34795204
O   -1.85914094   0.74783472  -3.66677338
H   -0.90765089   0.57923140  -3.73505866
C   -2.03928589   2.14815706  -3.52828535
H   -3.11636950   2.32038473  -3.45269613
H   -1.66327136   2.71310592  -4.39559336
H   -1.56468327   2.55013522  -2.61947116
O    3.95802666  -0.97865571   0.21984512
H    3.77470889  -0.37936333   0.95853756
C    4.76762007  -2.03422152   0.71266671
H    4.96458514  -2.69979183  -0.13214459
H    4.26885114  -2.62060024   1.50017346
H    5.73540207  -1.68155672   1.10228558
O    0.96697681   2.21079537  -1.57733999
H    0.93134643   1.59839115  -2.32708316
C    2.06852947   1.83471912  -0.76636393
H    2.09395719   2.53465756   0.07323409
H    3.03075961   1.90364282  -1.29753247
H    1.96864131   0.81645126  -0.35901856
O    2.44212107  -1.53662538  -2.09797248
H    3.00336311  -1.38691803  -1.32271875
C    1.67869864  -2.70779542  -1.85697306
H    1.05232174  -2.86170411  -2.73983732
H    1.01730571  -2.61165264  -0.98170551
H    2.30508846  -3.60351740  -1.72245445
O   -3.16855260  -0.79160980  -1.70871994
H   -2.82033369  -0.28303797  -2.45606294
C   -2.22231933  -1.80163575  -1.39723324
H   -2.63028254  -2.36489687  -0.55355787
H   -1.24652307  -1.39115129  -1.09375097
H   -2.06011994  -2.50377045  -2.22998504
