72
Energy:   -417.75614598
O    1.86334574   0.10301908  -0.90074062
H    2.45666435  -0.42177348  -0.34307668
C    0.62664960   0.22626416  -0.21668866
H   -0.02967694   0.82000240  -0.85871325
H    0.72441939   0.74865689   0.74784451
H    0.14096156  -0.74577534  -0.03773706
O    0.25807996   0.91470947   3.42477618
H    0.10119524  -0.02289519   3.23847545
C   -0.76350121   1.35547422   4.30490806
H   -0.57159502   2.41325549   4.50429714
H   -0.75610853   0.81988760   5.26712926
H   -1.76979370   1.26786817   3.86618497
O    1.04406421   0.68924541  -3.51487192
H    1.38011203   0.51254364  -2.62365275
C    2.16256595   0.85390094  -4.37182945
H    1.76606631   1.05214047  -5.37131648
H    2.79234014  -0.04782580  -4.42706251
H    2.79872664   1.70481863  -4.08197433
O    1.07830549   3.15725942   1.93273751
H    0.79418460   2.42931674   2.50527400
C    2.48045264   3.04027451   1.75154236
H    2.78371875   3.86777242   1.10442406
H    2.76844686   2.09839795   1.25889116
H    3.03974175   3.12326644   2.69657429
O   -2.63247646  -0.96302201  -1.07380012
H   -2.38572861  -0.42727879  -1.84225180
C   -3.93489045  -1.47504143  -1.30636771
H   -4.19711191  -2.07591086  -0.43133569
H   -3.98404882  -2.12502359  -2.19399600
H   -4.69074745  -0.68146495  -1.41450601
O   -3.28413182   0.69078595   1.19326386
H   -3.02357332   0.12549987   0.45098077
C   -2.59026922   1.92113103   1.06158456
H   -2.89533915   2.54573905   1.90555278
H   -2.84397128   2.45508459   0.13244184
H   -1.49662045   1.79930394   1.10480318
O   -0.17439225   3.70544983  -0.56034884
H    0.25033808   3.61640929   0.30573384
C    0.85097382   3.75596239  -1.53943345
H    0.35512533   3.85629778  -2.50873850
H    1.46278150   2.84056314  -1.56208108
H    1.52202583   4.61924853  -1.40827101
O    1.15086807  -3.48277430   0.84266720
H    0.53410090  -3.42700494   0.09774351
C    1.47731640  -4.85061152   1.02971429
H    2.17264008  -4.89526295   1.87233902
H    1.97511768  -5.29279103   0.15253216
H    0.59939021  -5.46714655   1.27852648
O   -0.13350809  -1.78461382   2.71992386
H    0.34418804  -2.43386278   2.18261067
C   -1.51848331  -1.94412600   2.45737238
H   -2.04160874  -1.20533298   3.07056882
H   -1.89142595  -2.94278870   2.73371264
H   -1.77581159  -1.75656264   1.40315254
O    3.26866899  -1.59878367   0.87430386
H    2.63225745  -2.32767108   0.92042065
C    3.35971042  -1.02435437   2.16824211
H    4.08052715  -0.20519818   2.09830225
H    3.72456002  -1.73646015   2.92492398
H    2.40186537  -0.60740405   2.51675699
O   -0.73616494  -3.07744569  -1.17943430
H   -1.44409301  -2.41910946  -1.11734954
C   -0.04226793  -2.84993528  -2.39569074
H    0.75148178  -3.59996428  -2.44957123
H    0.42569862  -1.85396317  -2.43840132
H   -0.68583502  -2.96974067  -3.28126705
O   -1.75197329   0.54215258  -3.23808708
H   -0.81398939   0.62516817  -3.46550273
C   -2.26247687   1.84974872  -3.03287450
H   -3.31973893   1.73775848  -2.77764848
H   -2.19360516   2.47937374  -3.93376648
H   -1.76471815   2.37516853  -2.20284582
