72
Energy:   -417.04650983
O    0.86967478   0.43005251  -2.59049064
H    1.46657036   1.05917554  -2.15881581
C    1.44639506  -0.86070533  -2.47271248
H    0.76132057  -1.55691860  -2.96408325
H    1.56429819  -1.17982331  -1.42531575
H    2.42545153  -0.93611580  -2.97124935
O   -2.52061481  -2.43226868  -1.85856800
H   -3.04581824  -2.21375614  -1.07445263
C   -2.36298727  -1.24322485  -2.61610486
H   -1.76925099  -1.50733239  -3.49542826
H   -1.82516106  -0.45600955  -2.06491308
H   -3.32280886  -0.83013923  -2.96378303
O    1.46183259   3.08846961   1.33703552
H    1.67500605   2.59238233   2.14132264
C    0.13141095   3.56411231   1.46461316
H   -0.09233655   4.12048439   0.55035260
H    0.00395561   4.24663786   2.31941801
H   -0.60423144   2.74986541   1.55740104
O   -3.58401900  -1.71075076   0.65246733
H   -2.88637333  -1.15994827   1.03760421
C   -4.51872347  -2.00177872   1.67919224
H   -5.29752843  -2.62274281   1.22824696
H   -4.99682775  -1.09774561   2.08774796
H   -4.07248304  -2.56592893   2.51308753
O   -1.56489460   0.04626979   1.50292618
H   -1.88336311   0.82175762   1.01751944
C   -0.34467594  -0.36357579   0.90658166
H    0.00003704  -1.23784442   1.46543094
H    0.43777801   0.40917159   0.96493079
H   -0.46445620  -0.65787605  -0.14784586
O   -0.29003991  -3.62776067  -0.60744585
H   -0.99309836  -3.26735740  -1.16801839
C   -0.90502912  -4.23245270   0.51890649
H   -0.09898393  -4.63312418   1.13958251
H   -1.57047553  -5.06569363   0.24382838
H   -1.47912348  -3.51517391   1.12611662
O    2.31774571   2.39314687  -1.22380884
H    2.02037197   2.66495765  -0.34283720
C    3.37984625   3.25334234  -1.60399296
H    3.70277842   2.93324124  -2.59834466
H    4.24502785   3.18606025  -0.92597287
H    3.07031412   4.30822465  -1.66872708
O    2.26362837  -3.04876694   0.38004621
H    1.39154663  -3.28112658   0.02804378
C    3.16810218  -4.07356470   0.00024305
H    4.14522944  -3.79598281   0.40478701
H    3.26607895  -4.17083403  -1.09233032
H    2.89438071  -5.05696695   0.41349105
O    2.02763360   1.32623858   3.45124335
H    2.39829775   0.55750619   2.99289645
C    0.96800050   0.86660301   4.27492206
H    0.56188131   1.74504505   4.78373636
H    1.30517779   0.15281759   5.04277567
H    0.15404291   0.39886732   3.69918453
O   -1.35037843   2.16787855  -2.63599679
H   -0.63193470   1.52761299  -2.74700086
C   -0.79512044   3.46604944  -2.77374545
H   -1.61780813   4.17480381  -2.64592764
H   -0.35011857   3.63503824  -3.76681819
H   -0.03323430   3.68595947  -2.00958158
O    3.01111334  -0.76197885   1.83002990
H    2.78595206  -1.60315668   1.40559436
C    3.81012107  -0.02159764   0.92120864
H    4.05470484   0.92270095   1.41513592
H    3.28260629   0.21059940  -0.01718894
H    4.75412497  -0.53115725   0.67224486
O   -2.63328612   2.05861441  -0.14882006
H   -2.24255320   2.16760461  -1.02852012
C   -3.98822531   1.67653127  -0.32399435
H   -4.41309343   1.55807582   0.67647583
H   -4.09441376   0.71797623  -0.85566491
H   -4.57896699   2.43730529  -0.85787120
