72
Energy:   -416.11902016
O    2.86124150   0.05255793  -2.33146584
H    2.32741754  -0.64359514  -2.74235044
C    3.26035239  -0.41018498  -1.05118725
H    3.86058153   0.38595271  -0.60243904
H    3.88103876  -1.31846201  -1.10176985
H    2.40586503  -0.60985882  -0.38578584
O   -1.63640285   0.71327115  -0.84248268
H   -2.11622688   0.90047887  -0.02202826
C   -0.27383034   1.04593480  -0.62972741
H    0.25201435   0.82900450  -1.56349066
H    0.19003385   0.44781531   0.17018535
H   -0.12795260   2.11207079  -0.39552434
O   -1.61294837  -1.28494927  -2.79814326
H   -1.64910089  -0.58071859  -2.13393289
C   -2.74333470  -1.13848086  -3.64271860
H   -2.68692679  -1.93947715  -4.38481583
H   -2.75188678  -0.17650107  -4.17872148
H   -3.69594787  -1.24235994  -3.10002660
O    1.63611775  -0.82273383   2.21757457
H    1.52449523   0.13181402   2.33923840
C    2.61157911  -1.26410585   3.14827305
H    2.72494229  -2.34110216   2.99756495
H    2.30884395  -1.09567782   4.19362503
H    3.59398290  -0.79207020   2.99065810
O   -2.66874607  -3.20501183   1.32395584
H   -1.70533924  -3.23241652   1.22638778
C   -3.20092227  -2.57976228   0.16706982
H   -4.28673346  -2.55718238   0.29351902
H   -2.97636136  -3.13440237  -0.75744308
H   -2.84989507  -1.54318018   0.04437195
O   -3.00628654   1.00510628   1.59490786
H   -2.99283884   0.29454277   2.25319498
C   -4.29347896   1.60042960   1.63039841
H   -4.29121129   2.39851148   0.88303948
H   -4.52759503   2.04925932   2.60841624
H   -5.09658934   0.89272465   1.37166156
O    2.10309885   3.72881043   0.49750563
H    2.22358278   3.48460560  -0.43215608
C    3.12028988   4.65882894   0.83354397
H    2.96974287   4.92323533   1.88373922
H    3.06511878   5.58319552   0.23749036
H    4.13260444   4.23798645   0.72919764
O    1.28379656   1.93481286   2.48185372
H    1.58782335   2.60344261   1.85024843
C   -0.00004472   2.32774174   2.93999368
H   -0.32750628   1.56378180   3.65035933
H   -0.74314170   2.38070540   2.12895789
H    0.01327023   3.29684607   3.46290555
O    0.13932201  -2.93473270   1.12502018
H    0.68130292  -2.23580725   1.52022037
C    0.40216274  -2.94689171  -0.26900302
H   -0.21633351  -3.73970910  -0.69840747
H    1.45493816  -3.17157518  -0.50129287
H    0.13239780  -1.99923134  -0.76088110
O    2.47308199   2.82154231  -2.11926843
H    2.68859603   1.88597834  -2.24848543
C    1.64768302   3.22631575  -3.19973536
H    1.41440408   4.28227173  -3.03841853
H    0.69846637   2.66952266  -3.24152677
H    2.14873893   3.13265980  -4.17592636
O    1.07085840  -1.83433013  -3.39648274
H    0.12109082  -1.68995445  -3.27190149
C    1.22910144  -3.00989466  -4.17464786
H    2.30452897  -3.15769434  -4.30539986
H    0.77248975  -2.92362332  -5.17306678
H    0.81901359  -3.90492535  -3.68116498
O   -2.93672842  -1.21190072   3.31065513
H   -2.97617410  -1.98185477   2.72410754
C   -1.68796416  -1.24645652   3.98291065
H   -1.66021200  -0.37241588   4.63923982
H   -0.83181030  -1.18276555   3.29318508
H   -1.56554021  -2.14576129   4.60664189
