72
Energy:   -416.57533017
O   -3.24232344   0.67042710  -2.82010988
H   -3.11718932  -0.20707519  -2.42927172
C   -2.10336954   0.95295042  -3.61729140
H   -2.26085033   1.94469553  -4.04987277
H   -1.97444342   0.23658606  -4.44371592
H   -1.17082481   0.97990136  -3.03213219
O    1.00606998   0.69623431   4.04157029
H    0.29702407   0.04125619   3.95983388
C    0.41204031   1.92937373   4.41443714
H    1.22459336   2.65570600   4.50209660
H   -0.10448331   1.87611084   5.38559302
H   -0.30013650   2.30299243   3.66211368
O   -2.81381242  -1.84830505  -1.51704189
H   -2.12565397  -2.41817782  -1.14273419
C   -3.78658317  -1.62860717  -0.50809012
H   -4.55410590  -0.98503529  -0.94650691
H   -3.37477626  -1.11575699   0.37518623
H   -4.27129343  -2.55959733  -0.17478754
O   -1.35253456   0.87828289   1.25022279
H   -1.38473932   1.80663965   0.97537764
C   -0.62578065   0.16247568   0.26433103
H   -0.59913668  -0.88106846   0.58958620
H    0.41257833   0.51479593   0.16206468
H   -1.10432631   0.19900674  -0.72684850
O    0.68928041   2.62491055  -1.88510172
H    1.00494205   1.75096053  -2.15894907
C    1.02616831   3.54511868  -2.91089765
H    0.66343997   4.52415142  -2.58623127
H    0.54590680   3.30476136  -3.87233125
H    2.11259600   3.62062336  -3.07445578
O    1.62169993   0.03544659  -2.50031658
H    2.27097917  -0.15539545  -1.80717947
C    0.99855003  -1.18860225  -2.85517207
H    0.27037858  -0.95541237  -3.63675637
H    0.45961524  -1.65108507  -2.01348551
H    1.70936841  -1.92599519  -3.25985246
O   -1.20577486  -0.95244405   3.36803736
H   -1.35471631  -0.33813536   2.63396341
C   -1.97885836  -2.11566657   3.11946336
H   -1.79934769  -2.79680826   3.95570922
H   -1.68610122  -2.63043493   2.19097851
H   -3.05922274  -1.90679549   3.07515743
O   -1.18067311   3.46166211   0.05064323
H   -0.53757418   3.25832633  -0.64469957
C   -2.46231108   3.52676276  -0.55408795
H   -3.17450522   3.75657598   0.24306360
H   -2.76326739   2.57364090  -1.01643129
H   -2.53377904   4.31983409  -1.31481624
O    3.32544247  -0.39996015  -0.30366713
H    3.15975649   0.21729075   0.42432515
C    4.73087841  -0.53144563  -0.44507145
H    4.89972652  -1.22997254  -1.26910766
H    5.21220423  -0.94338235   0.45571206
H    5.22371539   0.42036117  -0.69796044
O    2.65468926   1.26328214   1.81075266
H    2.15702393   1.11274684   2.62812138
C    2.29168241   2.54198965   1.31510470
H    2.86126310   2.69537358   0.39448729
H    2.54449274   3.35587952   2.01256262
H    1.22052010   2.61464314   1.06993109
O   -0.78352094  -3.41549323  -0.33907649
H    0.09626568  -3.19581964   0.00172006
C   -0.75108261  -4.76454660  -0.77672536
H   -1.74970766  -4.99541533  -1.15742584
H   -0.52456139  -5.47045674   0.03761876
H   -0.02854676  -4.93013568  -1.59115740
O    1.74944953  -2.59988124   0.54287536
H    2.36514170  -1.93431862   0.20174076
C    1.68231722  -2.44244648   1.95115138
H    0.98468262  -3.19972027   2.31902034
H    1.30178834  -1.45341811   2.25081451
H    2.65364282  -2.60496541   2.44399161
