72
Energy:   -416.51498210
O    3.75641893  -0.88914581   1.29452420
H    3.45823751  -0.16547422   1.86532237
C    5.09893803  -1.18702290   1.64301447
H    5.41896868  -2.00402659   0.99065678
H    5.20287539  -1.52278789   2.68667928
H    5.77883800  -0.33569495   1.48253371
O   -1.87226789  -1.18518820   2.88110256
H   -2.43350730  -1.62412711   2.22477472
C   -2.68960685  -0.28738631   3.61488902
H   -2.04171093   0.19839901   4.34955132
H   -3.49987933  -0.79766457   4.15881176
H   -3.13543201   0.49590054   2.98205494
O    3.74491388   0.66194439  -1.10689215
H    3.80589862   0.10950747  -0.31347070
C    3.04497598  -0.07837778  -2.09408200
H    2.98531390   0.55848249  -2.98083712
H    2.01850346  -0.33264041  -1.78670276
H    3.56371672  -1.00807803  -2.37576056
O    2.70653733   1.31918993   2.63371131
H    1.76019186   1.17178138   2.48836950
C    3.06745254   2.50726471   1.94759741
H    4.13623806   2.65833508   2.12183994
H    2.53190423   3.39380642   2.32177536
H    2.90542444   2.43651990   0.86062023
O   -0.47662567   0.07304837  -2.84439036
H   -0.19895253  -0.82557725  -2.61245741
C   -1.88303016   0.05472465  -3.02938884
H   -2.17892285   1.07453178  -3.29001528
H   -2.42807909  -0.23647069  -2.11784933
H   -2.19550303  -0.61136379  -3.84881804
O   -3.85028808   0.67678462  -0.01137887
H   -3.36742455   1.50770603  -0.13318080
C   -5.23244909   0.95514940  -0.16847049
H   -5.76147562   0.00861730  -0.02813833
H   -5.47782121   1.33792628  -1.17149178
H   -5.60963070   1.67105151   0.57852050
O   -0.14621033   2.78092748  -2.09168505
H   -0.17728670   1.87202651  -2.42538635
C    1.19868133   3.22450385  -2.17559100
H    1.21562913   4.24968037  -1.79583967
H    1.57863864   3.23698888  -3.20915469
H    1.88459112   2.62122186  -1.56048456
O    0.38864136  -2.46657082  -1.98268605
H    0.88027219  -2.64220737  -1.16667491
C    0.77087150  -3.44630009  -2.93482283
H    0.20787568  -3.23368836  -3.84768490
H    0.52538243  -4.47050302  -2.61307636
H    1.84408549  -3.40647754  -3.17855063
O   -3.47021066  -2.00803121   0.71026783
H   -3.66125973  -1.10969244   0.40219157
C   -2.55178616  -2.58947149  -0.20130082
H   -2.34753109  -3.60078739   0.16064561
H   -1.59617130  -2.04414081  -0.24811985
H   -2.95760620  -2.66768276  -1.22207035
O    0.07210882   0.64657513   1.95670018
H   -0.57391473   0.02547687   2.32455041
C    0.05223128   0.50279055   0.54550755
H    0.78546371   1.20943037   0.14736743
H   -0.92850044   0.74522384   0.10713702
H    0.33929395  -0.50837700   0.21700710
O    1.83353428  -2.75855738   0.39539942
H    2.54537887  -2.18443977   0.71491392
C    1.04649960  -3.13209521   1.51503315
H    0.24957438  -3.77838866   1.13727640
H    0.57848100  -2.26849803   2.01296471
H    1.61815452  -3.69875156   2.26662384
O   -2.39854271   3.04041280  -0.42415062
H   -1.63563547   3.08241278  -1.01966034
C   -2.01623681   3.63154701   0.80748906
H   -2.88701693   3.57584663   1.46637042
H   -1.73549720   4.69114490   0.70158849
H   -1.18472348   3.09880629   1.29488034
