61
Energy:  -2131.73315799
O   -2.81383451  -2.05724188   1.84063051
H   -3.00927636  -1.25192063   2.31968377
H   -3.30441558  -2.73668144   2.30314963
O    0.90841514   0.29878934   5.20398356
H    0.91788659   0.10633536   6.14158881
H    0.06830553   0.73322910   5.05664113
O    2.60455487   0.48276980   1.87038695
H    2.71844960   1.18243622   2.51360288
H    2.42849678  -0.29865102   2.39442597
O   -2.97634046   0.61390837   2.61516355
H   -2.48626673   0.94833179   3.36630973
H   -3.84135707   1.01596686   2.69470651
O    3.12098011   0.49379790  -2.71529614
H    3.09725116  -0.42987532  -2.96528926
H    4.05037803   0.72239532  -2.72924531
O    1.47206793  -1.59440021   3.25657099
H    1.91560799  -2.34995598   3.64210898
H    1.24728852  -1.04074833   4.00435148
O   -0.84783430   0.93972361  -2.16752190
H   -1.69893736   0.86392861  -2.59892721
H   -0.24978172   1.21337432  -2.86299315
O   -0.21100808  -1.54473586   1.07724932
H    0.42778848  -1.61120645   1.78700453
H   -1.00507587  -1.94566248   1.43072638
O   -1.57498427  -2.11420119  -4.07829825
H   -0.88066519  -1.82363092  -4.66967104
H   -1.89577883  -2.92823360  -4.46646565
O    2.35805566   2.30465975   3.92553789
H    3.06123074   2.72665363   4.41919550
H    2.00391688   1.64839061   4.52564486
O    2.34844407  -2.07056397  -3.35848395
H    2.87684457  -2.84770431  -3.54035657
H    1.88144704  -1.90102322  -4.17665358
O   -0.98659098   1.19588775   0.81119905
H   -0.49472685   1.89529970   1.24145997
H   -1.75616348   1.06751439   1.36573516
O    0.13802477   3.08586934   2.51210448
H    0.13897869   4.02954881   2.35179230
H    0.97800673   2.91388519   2.93764367
O   -3.22299098  -0.07962707  -3.15112961
H   -2.83969601  -0.79050317  -3.66491164
H   -3.99150818   0.19188297  -3.65302148
O    0.03933203  -1.76687293  -1.88403192
H    0.90190248  -1.99642758  -2.22973228
H   -0.57306070  -2.03648023  -2.56851632
O   -2.42159078  -0.87877826  -0.62729953
H   -3.04267546  -0.74515446  -1.34328162
H   -2.91030634  -1.38269694   0.02343460
O    0.96363020   1.35719110  -4.18562016
H    1.06197382   2.17763533  -4.66876781
H    1.81601423   1.21805829  -3.77292733
O    0.66867086  -1.14512895  -5.36849064
H    0.81892615  -1.16044126  -6.31370000
H    0.73920544  -0.22100507  -5.12921722
O   -1.31629888   1.78209497   4.47282323
H   -1.67083424   2.37255529   5.13757368
H   -0.86256093   2.35814226   3.85758081
O    1.50058767   0.33849608  -0.52910091
H    1.99750767   0.44557128   0.28197077
H    2.14647181   0.46303813  -1.22448196
Ca  -0.44699875  -0.27311532  -0.53766054
