61
Energy:  -2134.36311959
O   -3.59015633  -1.14188598  -1.19621825
H   -4.32559058  -1.60748679  -1.59444456
H   -3.42981903  -1.60500870  -0.37400103
O   -1.60869061   0.86155950   2.87694239
H   -1.33964690   1.27029651   3.69960963
H   -2.08772283   0.07710182   3.14412422
O    1.46253096  -1.25873730   2.85490430
H    2.21111919  -1.79980097   3.10609671
H    0.92530113  -1.21035024   3.64564740
O   -0.22495166  -1.19201800   5.05498066
H   -0.35757170  -0.27479118   5.29443572
H    0.00627242  -1.62373780   5.87740712
O    4.09297470  -1.44274886  -0.14830328
H    4.41515431  -0.54160829  -0.12886571
H    4.88354620  -1.98111754  -0.11105135
O   -0.75594467   1.50354062   5.48775673
H   -1.45465070   1.77116284   6.08476602
H   -0.04624695   2.12351843   5.65565107
O   -3.30609769   1.64175013  -1.39845205
H   -3.62831243   0.74100873  -1.36567344
H   -4.07410419   2.17862175  -1.20308897
O   -0.50741723   0.00010495  -4.60097966
H   -0.92009712  -0.26228666  -5.42382703
H   -0.86601998   0.86872448  -4.41894660
O    2.23988445  -0.37342097  -4.18931489
H    2.66769703  -0.87540183  -4.88301761
H    1.34622654  -0.24053090  -4.50545984
O   -1.19364825   1.03361184   0.24012500
H   -1.97468086   1.39088234  -0.18245955
H   -1.38087778   1.08967113   1.17715985
O    4.12922091   1.35963268  -0.26333348
H    3.98712128   1.59719408  -1.17963263
H    4.79970065   1.97082329   0.04184647
O   -0.08937856  -1.61445291   0.63384851
H    0.38685946  -1.71845364   1.45762824
H   -0.93249711  -2.04039135   0.78863679
O    3.24145844   1.87529188  -2.86420972
H    3.10013647   1.14048156  -3.46112993
H    3.65540455   2.54776387  -3.40519206
O   -1.00487270  -0.75005446  -2.01103439
H   -1.92084199  -0.98839823  -1.86812055
H   -0.92623456  -0.65779260  -2.96052670
O    0.72464148   1.57517606  -1.84227248
H    1.56259890   1.85131853  -2.21349282
H    0.06712241   2.02328589  -2.37434212
O   -2.62808329  -2.51780172   1.04376823
H   -2.83273327  -3.45266763   1.06315797
H   -2.71958156  -2.23319160   1.95308500
O    1.84034771  -1.06175297  -1.56109628
H    2.07093725  -1.00413095  -2.48831794
H    2.64719686  -1.34384778  -1.13022644
O   -1.43605870   2.33332177  -3.36485395
H   -2.18424198   2.17225229  -2.78995373
H   -1.63512205   3.16763201  -3.78974458
O   -2.58773435  -1.60296148   3.64516483
H   -1.80406567  -1.63643401   4.19377657
H   -3.31086195  -1.77208635   4.24908130
O    1.69235936   0.62303396   0.78915986
H    2.56336558   0.96264229   0.58362107
H    1.79813069   0.18711322   1.63474686
Ca   0.33780191  -0.03599335  -0.61067056
