61
Energy:  -2134.44376887
O   -3.24214185  -0.32561085   2.22777562
H   -2.83289522  -0.23970532   3.08880366
H   -4.09646112   0.09498723   2.32507771
O    0.72813729   0.15395316   3.81594143
H    1.25373735  -0.21865915   4.52385138
H   -0.16415857   0.16938376   4.16206544
O    0.42291236  -1.14571902   1.43160370
H    0.58200480  -0.78312594   2.30306666
H    0.22866225  -2.06986456   1.58798068
O   -1.90375553   0.21215813   4.56061687
H   -2.16617008   1.12703716   4.45879939
H   -2.22236555  -0.03366146   5.42911686
O    3.43029291   1.83268242  -1.71626266
H    3.80219685   0.96590990  -1.87943342
H    4.19068549   2.40735459  -1.62801945
O   -0.44326252  -3.65861853   1.72002117
H   -1.39470753  -3.62846206   1.61964773
H   -0.26202748  -4.54818440   2.02343222
O   -0.44240370   0.75248867  -2.12017335
H   -1.07544371   0.34428413  -2.71081812
H    0.17211384   1.20183141  -2.70042428
O   -3.03600684  -2.84833808   1.09872897
H   -3.83800861  -3.37082958   1.10398651
H   -3.25556359  -2.06657359   1.60555335
O    0.53191059  -2.41609269  -3.77186665
H    1.19200711  -1.90618944  -4.24144425
H    0.63905852  -3.30848796  -4.10108064
O    1.44133678   2.46556848   2.49623745
H    2.12361661   2.96524046   2.94462790
H    1.24385943   1.74190668   3.09083659
O    3.88058425  -0.81923488  -2.26227832
H    4.68096071  -1.34319095  -2.22912119
H    3.59296262  -0.87782516  -3.17336164
O   -1.38323116   0.97073927   0.69988891
H   -1.35257699   1.88759934   0.97312835
H   -2.10169153   0.59302324   1.20721243
O   -1.03176438   3.47206852   1.75553143
H   -0.14602778   3.33635527   2.09210898
H   -1.03692226   4.38009801   1.45273168
O   -1.92462651  -1.16244806  -3.44327825
H   -1.19820429  -1.68207071  -3.78756724
H   -2.61639831  -1.25325410  -4.09859336
O    1.32903351  -1.35189731  -1.37076310
H    2.27415379  -1.25814399  -1.48988410
H    1.04421420  -1.87919263  -2.11713396
O   -1.51495520  -1.53732553  -0.75305389
H   -1.89621233  -1.61901539  -1.62724015
H   -2.07103933  -2.08281661  -0.19677898
O    1.54566694   1.74819938  -3.72861859
H    1.45344331   2.52590455  -4.27898330
H    2.25893533   1.96284201  -3.12744589
O    2.50203143  -0.69603196  -4.67065001
H    2.85926872  -0.67465383  -5.55843171
H    2.15761277   0.18579282  -4.52925451
O   -2.64083717   2.71826717   3.89657810
H   -3.12144921   3.43901113   4.30372925
H   -2.15745182   3.12736037   3.17879457
O    1.45163633   1.21331740   0.06224249
H    2.17957719   1.50922646  -0.48435771
H    1.55577888   1.69576984   0.88238017
Ca  -0.01818135  -0.18586027  -0.32326945
