61
Energy:  -2131.80984213
O   -3.42965297  -0.70878285   1.17486258
H   -3.16804326  -0.75484676   2.09446593
H   -4.37497631  -0.85865140   1.18648332
O    1.14122711   2.41317941   4.62498834
H    0.20467142   2.24378961   4.72698045
H    1.41493215   2.76583145   5.47171967
O    2.28885131   0.22903386   3.37096492
H    2.01105735   0.96046276   3.92239408
H    3.02732060  -0.15865311   3.84063903
O   -1.60634373   2.00491387   4.43882993
H   -1.72033709   2.55330641   3.66261927
H   -2.19118369   2.38900816   5.09202641
O    3.59209879   0.65261015  -1.06445489
H    4.54371272   0.75090978  -1.03283276
H    3.36572944   0.80242256  -1.98235740
O    0.17446120  -0.54071509   1.92567245
H    0.94914570  -0.37041453   2.46148350
H   -0.53268805  -0.66469516   2.55876070
O   -0.09935256   0.50951402  -2.04530364
H   -0.70082907   0.19365289  -2.71961040
H    0.66464443   0.81972206  -2.53142238
O   -1.32598521  -0.58501938  -4.24041297
H   -1.68558733  -0.08953761  -4.97622272
H   -0.47664337  -0.89658368  -4.55310765
O   -0.95320717  -3.94729631  -1.64705106
H   -1.20526927  -4.83280365  -1.38518604
H   -1.56117301  -3.72316875  -2.35159078
O    1.19057894   3.55406412   2.12202808
H    1.72746218   4.34579953   2.08821589
H    1.29928584   3.22836487   3.01552383
O    1.63424201  -1.21543626  -0.56913100
H    2.49873195  -0.81374458  -0.65592263
H    1.65384507  -1.95952602  -1.17094327
O   -1.57857133   1.17815716   0.43564436
H   -1.62254512   2.01197949   0.90365983
H   -2.41450769   0.75214402   0.62526250
O   -1.54707127   3.39347774   2.03665088
H   -2.01344811   4.21059745   1.86046953
H   -0.62294381   3.64258370   2.04955520
O   -2.56569560  -2.96072384  -3.55074492
H   -3.27384237  -3.20907562  -4.14495144
H   -2.26383782  -2.11338127  -3.87804341
O    1.51925569  -3.15169528  -2.49712932
H    0.68384575  -3.56687298  -2.28277080
H    2.14237650  -3.87674521  -2.54461518
O   -1.29308615  -1.57369687  -0.35694747
H   -1.22778989  -2.44249502  -0.75337907
H   -2.15922862  -1.56021189   0.05029597
O    2.21508310   0.92418699  -3.46104663
H    2.04025398   0.13809101  -3.97846304
H    2.42315572   1.59690253  -4.10942263
O    1.29514353  -1.40593865  -4.64728154
H    1.40609969  -2.09145069  -3.98849947
H    1.61711082  -1.79852849  -5.45872602
O   -2.01680602  -0.58481708   3.56802995
H   -1.94086168   0.28443992   3.96154816
H   -2.14214306  -1.17466339   4.31140321
O    1.35138977   1.53039126   0.26925326
H    2.24668610   1.47837322  -0.06536659
H    1.37327705   2.24756709   0.90282379
Ca   0.02855459  -0.02244789  -0.05509550
