61
Energy:  -2130.29900115
O   -3.43920115   0.50424332   2.09573055
H   -3.00508491   0.33437416   2.93174455
H   -4.36253552   0.61437354   2.32279183
O    2.19310873   1.47990907   3.74027240
H    2.87238042   1.20105221   4.35432506
H    1.47268761   1.77506098   4.29714816
O   -1.05132503  -5.84706862  -0.00960459
H   -0.35587732  -6.47494248   0.18624930
H   -1.86039914  -6.35213904   0.07123357
O   -0.21122817   2.35969745   4.80974432
H   -0.38930433   2.99720464   4.11829273
H   -0.35660878   2.84172938   5.62383371
O    2.95242854   1.38814870  -2.36574572
H    3.13321822   0.45102831  -2.43890521
H    3.78243445   1.81065146  -2.58668340
O    0.46890103   0.00834901   2.16991347
H   -0.19366101  -0.15982371   2.83995923
H    1.21315052   0.36730331   2.65310737
O   -0.77965429   0.61379483  -1.71283654
H   -1.55738039   0.15597564  -2.03185933
H   -0.33471251   0.91240003  -2.50599076
O   -1.19782876  -2.95191587  -3.56272079
H   -1.41641115  -3.65840131  -4.17044764
H   -0.43704300  -2.52411275  -3.95568564
O   -0.84280711  -3.25631567  -0.83458441
H   -1.00369374  -3.30477557  -1.77692139
H   -0.90462928  -4.16286995  -0.53363724
O    2.20093754   3.41569130   1.79206305
H    2.92303041   4.04400343   1.78593158
H    2.39805920   2.83067865   2.52359234
O    2.85667672  -1.35831577  -2.46418508
H    3.56739357  -1.99585453  -2.53243261
H    2.29568613  -1.54273850  -3.21751745
O   -1.33307212   1.82510554   0.92282983
H   -1.09695335   2.62148214   1.39850207
H   -2.20065054   1.59517826   1.25550532
O   -0.42781647   3.88237032   2.49030872
H    0.49617002   3.94569919   2.24850245
H   -0.75014240   4.78249737   2.44438344
O   -2.79466677  -0.92634676  -2.56990940
H   -3.67038883  -0.87554784  -2.95300494
H   -2.38637839  -1.67599367  -3.00299363
O    0.99096761  -1.29438156  -0.45993018
H    1.72187478  -1.36592277  -1.07384256
H    0.51955407  -2.12251156  -0.55049418
O   -1.69580428  -1.00507517   0.52438367
H   -1.77900320  -1.87171439   0.12658191
H   -2.54603348  -0.84666674   0.93456524
O    0.69200215   1.18659416  -3.94698779
H    0.50416060   1.87736839  -4.58242336
H    1.53623752   1.43188147  -3.56839484
O    1.00283745  -1.52380792  -4.50035005
H    1.25217683  -1.68508183  -5.41032393
H    0.81076506  -0.58668331  -4.46662294
O   -1.52069064   0.03941065   4.06556287
H   -1.65133594  -0.55887763   4.80123589
H   -1.17075057   0.83646299   4.46366004
O    1.44735011   1.58419335  -0.08874241
H    2.03221372   1.60736880  -0.84612561
H    1.77349915   2.27537097   0.48756667
Ca  -0.13521298   0.29708137   0.21250696
