61
Energy:  -2136.30591396
O   -3.27935522   0.18657430   2.31150479
H   -3.02949724   0.07739638   3.22904663
H   -4.23649567   0.18847501   2.32201215
O    2.10148538   1.17459418   3.63322268
H    1.35240125   1.41467174   4.17862855
H    2.78315372   0.92620029   4.25761086
O    0.88847424  -0.50073106   1.83559993
H    1.41757222   0.01031499   2.44806962
H    0.43534737  -1.13998908   2.38537904
O   -0.26728823   1.97807762   4.80013299
H   -0.28960170   2.52494642   5.58541541
H   -0.47081672   2.57895994   4.08337052
O    2.62884796   1.65591865  -2.75403666
H    2.91145942   0.76059010  -2.94044860
H    3.37130585   2.20106329  -3.01443142
O   -0.89113681  -2.10306757   3.13378001
H   -0.83466891  -2.94735185   3.58124762
H   -1.31898995  -1.52487569   3.76533973
O   -0.90580335   0.35514462  -1.77606422
H   -1.64684442  -0.18102745  -2.05821576
H   -0.59652394   0.77776230  -2.57729602
O   -1.06125695  -3.07616384  -4.01378269
H   -0.41735547  -2.49944393  -4.42489933
H   -1.29310710  -3.70366280  -4.69841574
O   -0.39334988  -3.59926013  -1.38858902
H   -0.30509765  -4.53907567  -1.22987499
H   -0.65044379  -3.53429886  -2.30832519
O    2.13904206   3.12818001   1.69606511
H    2.84974776   3.76875925   1.72412741
H    2.32081714   2.53593346   2.42574566
O    2.84547948  -1.06164437  -3.12607364
H    3.61886454  -1.58561015  -3.33480135
H    2.23522079  -1.23881973  -3.84191236
O   -1.21177732   1.27481727   1.00371464
H   -1.03899380   2.10772033   1.44263400
H   -2.02700772   0.96163635   1.39556787
O   -0.49366082   3.47507028   2.46634323
H    0.41849258   3.60002886   2.20443985
H   -0.88600383   4.34500150   2.39205673
O   -2.74268412  -1.42650533  -2.56413984
H   -3.67695909  -1.49333411  -2.76136066
H   -2.32521357  -2.03945695  -3.16931792
O    1.19705915  -1.42823393  -0.96785731
H    0.82012346  -2.29649375  -1.11025188
H    1.86812724  -1.34390927  -1.64519683
O   -1.32502125  -1.58507940   0.37856397
H   -1.58713315  -1.88258152   1.24978248
H   -1.42978055  -2.35552224  -0.17971479
O    0.22673812   1.30970698  -4.07872536
H    1.07589125   1.62402706  -3.76828422
H   -0.11522469   2.02818874  -4.61077539
O    0.80910575  -1.25723359  -4.97898214
H    0.50829731  -0.36399236  -4.81205032
H    0.97691032  -1.28184031  -5.92103734
O   -2.02593544  -0.17668948   4.75015427
H   -2.42791730  -0.29284869   5.61105466
H   -1.43918242   0.57181531   4.85828995
O    1.40610802   1.42504364  -0.31669179
H    1.88952658   1.60201423  -1.12367367
H    1.73218791   2.07494562   0.30582822
Ca   0.00694215  -0.05359358   0.01849413
