61
Energy:  -2132.21569952
O   -2.81470266  -0.60498395   2.50646556
H   -2.80491900  -0.11468543   3.32850175
H   -3.72569585  -0.87942020   2.40154655
O    1.74343459   1.93348163   3.56515568
H    1.79898844   2.70429230   3.00035790
H    2.54929063   1.95553416   4.08123860
O    1.08931499  -0.18420538   1.93331099
H    1.39610526   0.47704462   2.55368185
H    0.73296837  -0.88205825   2.48308395
O   -0.68456496   2.81322625   4.62495456
H   -0.56337880   3.37984774   5.38685078
H    0.18632981   2.45652341   4.45020550
O    3.11266251   1.37993986  -2.17752769
H    3.96005242   1.71810267  -2.46702397
H    2.61005816   1.26917686  -2.98459167
O   -0.59206278  -2.20601046   2.82840499
H   -0.58080111  -2.88458190   3.50342041
H   -1.44186937  -1.77797715   2.93255915
O   -0.39350515   0.34423460  -1.87195670
H   -1.23696119  -0.00014338  -2.16558499
H    0.07203916   0.56002659  -2.68000011
O   -1.41585572  -2.86824383  -4.20199234
H   -1.81635873  -3.32775933  -4.94001314
H   -0.58590227  -2.53846536  -4.54645609
O   -0.60692729  -3.80228207  -1.74423788
H   -0.99792687  -3.56093133  -2.58394081
H   -0.95222029  -4.67603104  -1.56102402
O    1.37039189   3.92485764   1.68329406
H    1.68367456   4.82723416   1.62163018
H    0.42210565   4.00645576   1.78491494
O    2.03858959  -0.78328893  -0.84480568
H    2.11314749  -1.62427804  -1.29581597
H    2.68016405  -0.22068004  -1.27849369
O   -1.29001529   0.96346150   0.86943131
H   -1.39079093   1.86132217   1.18553624
H   -1.93774320   0.46094838   1.36355779
O   -1.32233888   3.46325866   2.02744466
H   -1.24916340   3.30207029   2.96813351
H   -2.05314210   4.07593644   1.94507699
O   -2.61957024  -0.88367934  -2.69656290
H   -3.52995613  -0.69873392  -2.92726740
H   -2.35381093  -1.57456893  -3.30341990
O    1.97809147  -3.07984809  -2.33653320
H    1.14795877  -3.50089866  -2.11331141
H    2.62745239  -3.78009208  -2.27156711
O   -0.50075048  -1.78524905   0.12979927
H   -0.66396968  -2.48620251  -0.50127567
H   -0.63059119  -2.19660494   0.98429302
O    1.19036318   0.73116691  -4.07041825
H    1.21218536  -0.16340069  -4.41027769
H    0.96730220   1.27069605  -4.82895892
O    1.15636935  -1.94646311  -4.73333034
H    1.63700087  -2.26833368  -5.49597346
H    1.56686281  -2.38526386  -3.98822574
O   -2.55889854   0.78725118   4.78770098
H   -1.92983346   1.50628044   4.84691162
H   -3.03029375   0.81161257   5.62042238
O    1.34835862   1.89238249  -0.12007449
H    2.01953074   2.01706635  -0.79105420
H    1.41440421   2.67082714   0.43300214
Ca   0.36616503   0.08178445   0.01609118
