61
Energy:  -2130.41020435
O   -3.32907666  -0.64132271   1.63133461
H   -3.23678551  -0.54157082   2.57883857
H   -4.24689648  -0.88112803   1.50353771
O    1.75280380   2.18257724   3.46791612
H    1.80018381   2.95798670   2.90869599
H    2.38816273   2.34958111   4.16409180
O    1.23636300  -0.05810533   1.98444219
H    1.57696304   0.63572870   2.54908171
H    0.85824204  -0.69607117   2.58963305
O   -1.01583422   2.21891075   3.34509525
H   -1.22499388   3.14953603   3.26496607
H   -0.09565311   2.20153231   3.60814767
O    3.00397952   1.43516101  -2.21663405
H    3.82954761   1.78711000  -2.54950202
H    2.48788408   1.25082760  -3.00142609
O   -0.44289462  -1.84827397   3.19918939
H   -0.28838642  -2.58036413   3.79618441
H   -1.13216036  -1.33560914   3.62146816
O   -0.42702193   0.21484396  -1.76838466
H   -1.25830562  -0.18355058  -2.02622387
H    0.01184903   0.41135860  -2.59603563
O   -1.33594930  -3.19590772  -3.86185566
H   -1.72460445  -3.72688009  -4.55701561
H   -0.53823480  -2.83759605  -4.25108074
O   -0.42290054  -3.92729723  -1.36942893
H   -0.84929292  -3.75704644  -2.20933133
H   -0.72104672  -4.80257650  -1.12198823
O    1.27785714   4.15170198   1.56551643
H    1.81083561   4.92322569   1.37337855
H    0.45763662   4.50608290   1.90885926
O    2.08229894  -0.73353945  -0.78218727
H    2.68320232  -0.16304679  -1.26144201
H    2.19609769  -1.59439938  -1.18493020
O   -1.25284889   0.92249583   0.97241618
H   -1.21854900   1.46511495   1.76021047
H   -2.06548950   0.42421938   1.05940850
O   -1.11217215   4.95603441   2.76778186
H   -1.05374930   5.55070168   3.51557158
H   -1.82576897   5.30852482   2.23602822
O   -2.60438437  -1.14230715  -2.51247687
H   -3.52740543  -1.02348513  -2.73640836
H   -2.31730827  -1.87431326  -3.05835800
O    2.10031070  -3.12576845  -2.11255932
H    1.29940187  -3.56504547  -1.82653031
H    2.78339836  -3.79039158  -2.02368194
O   -0.39745262  -1.79242292   0.37645532
H   -0.53569222  -2.55382859  -0.18691230
H   -0.67975589  -2.08151047   1.24419093
O    1.08710929   0.55828682  -4.02191317
H    1.14086603  -0.35344391  -4.30842520
H    0.80902885   1.03887002  -4.80162011
O    1.15699591  -2.15431097  -4.53269236
H    1.62938213  -2.49413206  -5.29269548
H    1.60689705  -2.53724211  -3.77957580
O   -2.35200603  -0.11064280   4.18850116
H   -1.99570539   0.77167974   4.08463273
H   -2.79918938  -0.09081124   5.03458957
O    1.27122897   1.95229270  -0.11845657
H    1.92048951   2.09660805  -0.80683560
H    1.25868223   2.77221425   0.37530763
Ca   0.40482378   0.08558131   0.10242307
