61
Energy:  -2131.70363601
O   -2.85183701  -1.54778743   2.14100986
H   -2.46964724  -1.24610768   2.96511674
H   -3.68863413  -1.93814980   2.39323923
O    0.87817314   3.56420972   3.77739290
H    0.06693849   3.18062741   4.11055174
H    1.14427739   4.18744727   4.45340719
O    2.44685419   1.49628552   2.81643523
H    2.04041444   2.25384899   3.23731071
H    3.33290857   1.46786498   3.17745013
O   -1.59750999   2.39056324   4.27539886
H   -1.98223122   2.65242408   3.43894783
H   -2.17900675   2.76774857   4.93556898
O    2.76631157   1.02578653  -2.02803377
H    3.63443024   1.41992856  -2.11320350
H    2.49651219   0.84273714  -2.92799658
O    0.49361910  -0.15533429   2.03588855
H    1.24949199   0.34663183   2.34071313
H   -0.03855154  -0.28800152   2.82037926
O   -0.60778673  -0.32700141  -1.91516265
H   -0.69618916   0.46097140  -2.45136757
H   -0.27522917  -0.99168169  -2.51835205
O   -1.14693003  -4.26998015  -3.90135019
H   -2.04597326  -4.11043610  -4.18857625
H   -0.83539976  -4.97533636  -4.46849511
O   -0.52219541  -4.42988394  -1.18114374
H   -0.82665383  -4.43310641  -2.08862736
H   -0.76670127  -5.29130873  -0.84291886
O    0.20210550   3.97648677   1.14091827
H    0.45009731   4.84611511   0.82710546
H    0.53945030   3.93910219   2.03592258
O    1.77112480  -1.00781037  -0.48050058
H    2.36053564  -0.43724737  -0.97373944
H    2.01431085  -1.89379757  -0.74905053
O   -1.89218412   0.53962645   0.61487865
H   -2.13028417   1.42077747   0.90317208
H   -2.51089242  -0.03553259   1.06501638
O   -2.31613233   3.02541571   1.67301353
H   -3.03712986   3.60547135   1.42820777
H   -1.52624924   3.51002979   1.43329338
O   -0.39899075   1.82591960  -3.49993532
H    0.31261339   1.47346506  -4.03437634
H   -0.84263428   2.45111361  -4.07312352
O    2.05325549  -3.48655870  -1.58769384
H    1.28738928  -4.02078495  -1.37725833
H    2.78377422  -4.10507648  -1.59085199
O   -0.83353578  -2.13662820   0.33641657
H   -0.78643734  -2.96164769  -0.14665322
H   -1.55187754  -2.26224342   0.95644704
O    1.72133223   0.29255123  -4.47986643
H    1.39338588  -0.60022297  -4.37199026
H    2.12527109   0.29661978  -5.34765021
O    0.62181093  -2.12590755  -3.53767590
H    0.01618596  -2.79039289  -3.86617168
H    1.26554329  -2.61856588  -3.02862948
O   -1.29304404  -0.34936215   4.09879508
H   -1.43994143   0.58130877   4.26762826
H   -1.10714173  -0.72311136   4.96017985
O    0.69300535   1.65583769  -0.25267255
H    1.37867698   1.79443513  -0.90603080
H    0.60829589   2.50068679   0.18923938
Ca  -0.06035003  -0.23602437   0.06189756
