61
Energy:  -2136.58709922
O   -3.18538167  -0.83879185   1.91885929
H   -2.66162253  -0.98110606   2.70731023
H   -3.97485879  -1.36198658   2.05751352
O    0.93851649   3.07317687   4.18629933
H    0.07613791   2.70511864   4.37883028
H    1.11106788   3.67274377   4.91223143
O    2.51383109   0.94408973   3.38672777
H    2.08948040   1.69734511   3.79753754
H    3.30279794   0.79881560   3.90889498
O   -1.55296612   1.87799134   4.51485078
H   -2.10489928   2.03913705   3.74958370
H   -2.07729466   2.17960324   5.25670097
O    3.85164868  -0.20717212  -1.46869164
H    4.79139905  -0.35174439  -1.57914505
H    3.52470353  -0.06479303  -2.35698602
O    0.63132424  -0.40059348   2.03207483
H    1.36074567  -0.02775253   2.52721708
H   -0.00019226  -0.66802372   2.69983215
O    0.20836550   0.60963523  -1.93085300
H   -0.61363465   0.68346873  -2.41572022
H    0.88283145   0.55921125  -2.60818965
O   -1.63254776  -1.88490807  -4.55977598
H   -2.04876733  -2.16282752  -5.37571341
H   -0.69422390  -1.97447756  -4.72638176
O   -1.81921074  -2.91421445  -2.01479277
H   -1.88321602  -2.56789811  -2.90484904
H   -2.54444171  -3.53514945  -1.94615168
O    1.18817992   3.57848859   1.48460485
H    1.35624158   4.50322690   1.30336967
H    1.15464969   3.52334099   2.43962648
O    1.59320159  -1.47676258  -0.55302524
H    2.49765094  -1.28032027  -0.79718427
H    1.38560149  -2.28120334  -1.02842940
O   -0.67025608   1.76283034   0.64352533
H   -0.16692093   2.54210421   0.87935962
H   -1.51742833   1.88561674   1.07184124
O   -2.96800977   1.90735095   2.11944321
H   -3.27447741   1.00400945   2.04017425
H   -3.73861993   2.44027556   1.92352689
O   -2.09761220   0.52523680  -3.28347283
H   -2.72517497   1.10312708  -3.71756919
H   -2.05319190  -0.24728094  -3.84692204
O    0.84647228  -3.56649018  -2.14946482
H   -0.10818341  -3.53477192  -2.08734935
H    1.06672202  -4.48488660  -1.99367678
O   -1.30005261  -1.03918942  -0.05996524
H   -1.56347058  -1.65575997  -0.74310767
H   -2.03107057  -1.03896086   0.55797047
O    2.23658413   0.13818915  -3.71260866
H    1.91733020  -0.67331448  -4.10728654
H    2.45816831   0.69653868  -4.45784561
O    1.12525592  -2.23839328  -4.56837099
H    1.14027482  -2.80077013  -3.79394310
H    1.55087801  -2.75784000  -5.25046541
O   -1.30959987  -0.81150464   3.92342320
H   -1.36245093   0.07340888   4.28448647
H   -1.19731218  -1.37635125   4.68799604
O    2.11649309   1.25861013   0.16409495
H    2.96622353   1.08347539  -0.24027847
H    2.24035916   2.08229659   0.63571943
Ca   0.41052404   0.10634828   0.05052548
