61
Energy:  -2136.90430427
O   -2.93894067  -1.83262501   2.57714936
H   -3.01031342  -0.94952113   2.93945489
H   -3.77863538  -2.24433228   2.78121251
O    1.41671328   0.88928203   4.05580904
H    1.83281214   0.53963665   4.84374413
H    0.61957202   1.31343410   4.37344513
O    0.65998974  -0.70127270   1.96010772
H    0.97475490  -0.22893199   2.73085345
H    0.40343344  -1.56099456   2.29370783
O   -0.91644997   2.28431872   4.53515257
H   -0.71957240   2.96519849   3.89182231
H   -1.08787800   2.76285485   5.34623052
O    3.15846671   1.36376341  -2.25277551
H    3.29851096   0.44439543  -2.47945143
H    4.00906309   1.77860370  -2.39639020
O   -0.41069285  -3.00247088   2.81193814
H   -0.27558909  -3.80631117   3.31375445
H   -1.34123816  -2.80577735   2.91977562
O   -0.66385779   0.69803929  -1.67352810
H   -1.45545907   0.33076442  -2.06685802
H   -0.19242963   1.09295377  -2.40703331
O   -1.19999362  -2.50984333  -4.19183850
H   -0.41817443  -2.04802261  -4.49467876
H   -1.46861415  -3.04310110  -4.93997686
O   -0.90729777  -3.29096653  -1.56326608
H   -1.05850185  -3.13932037  -2.49620371
H   -1.00950502  -4.23641872  -1.45415297
O    2.42400634   2.67559689   2.21765022
H    3.26461845   3.08730658   2.41789573
H    2.26059140   2.09123135   2.95795038
O    2.93134620  -1.31951533  -2.81746634
H    3.61610523  -1.96441278  -2.99479146
H    2.37181510  -1.34398477  -3.59371246
O   -1.05430487   1.45088138   1.15624205
H   -0.77786201   2.33515192   1.39681804
H   -1.78740977   1.26101119   1.74168066
O   -0.11815626   3.76636229   2.30778448
H    0.82951276   3.63371788   2.28410459
H   -0.23407448   4.70076630   2.13549412
O   -2.69145934  -0.62711112  -2.81660276
H   -3.58984280  -0.50091404  -3.12191129
H   -2.32697529  -1.28503108  -3.40865389
O    1.01895766  -1.49589768  -0.86532811
H    0.52045487  -2.27828802  -1.10110806
H    1.76654538  -1.49847298  -1.46310550
O   -1.61964860  -1.27992042   0.24432419
H   -1.71928683  -2.00160836  -0.37653859
H   -2.16271111  -1.52978245   0.99190959
O    0.86683366   1.53584550  -3.78512110
H    0.71733555   2.32966723  -4.29866684
H    1.72724085   1.66637814  -3.38650781
O    1.06827655  -1.03318328  -4.83587320
H    1.32021546  -1.02718380  -5.75930302
H    0.91689600  -0.11244596  -4.62242867
O   -2.85927760   0.88715894   3.12975363
H   -2.28457457   1.29843473   3.77535451
H   -3.70679067   1.31357361   3.25673386
O    1.63999010   1.24272306   0.02110178
H    2.23839597   1.36445958  -0.71600234
H    2.02063660   1.76407958   0.72787436
Ca  -0.00092326  -0.00761075   0.14091720
