61
Energy:  -2131.00457448
O   -3.60361763   0.35816598   1.88369348
H   -3.28270763   0.80009779   2.66978819
H   -4.50639297   0.66197842   1.78921313
O    0.10493294   0.61924210   3.66330535
H    0.15200762  -0.16859672   4.20490098
H   -0.75102289   0.99772104   3.86411659
O    0.15022146  -0.88866441   1.43709053
H    0.17454797  -0.39462556   2.25658164
H   -0.02640776  -1.79030051   1.70557945
O    0.00662146  -1.88934532   4.68068233
H    0.18288615  -2.38795945   5.47852100
H   -0.27612028  -2.54638148   4.04460651
O    3.43340536   1.82021134  -1.76235225
H    3.78166663   0.93439206  -1.86369390
H    4.20845951   2.37257283  -1.66027537
O   -0.78622158  -3.29023367   2.35511717
H   -1.69690399  -3.12722197   2.10952286
H   -0.69264519  -4.24186492   2.31183586
O   -0.41970825   0.85360507  -2.24772238
H   -1.05741173   0.44792373  -2.83507984
H    0.21879034   1.26229144  -2.83212537
O   -3.17489366  -2.32345819   1.28109442
H   -3.97686117  -2.84534658   1.30778630
H   -3.42831268  -1.47525423   1.64518325
O    0.43288946  -2.39818487  -3.69210686
H    1.12532404  -1.93097106  -4.15952258
H    0.50781339  -3.30330687  -3.99438559
O    1.56434174   2.58071804   2.44395632
H    2.29506846   2.98254070   2.91385936
H    1.22027166   1.92519394   3.05069826
O    3.78553429  -0.87848609  -2.13938812
H    4.57175807  -1.41800142  -2.05567892
H    3.53073901  -0.96651619  -3.05784438
O   -1.45256115   1.31742738   0.49812154
H   -1.31033512   2.18427010   0.87836792
H   -2.27635960   1.01865090   0.88324565
O   -0.98424568   3.57643635   1.98697280
H   -0.05870425   3.47427008   2.20870904
H   -1.09973110   4.51908582   1.86736119
O   -1.98866261  -1.04444330  -3.49469604
H   -1.27406380  -1.60653271  -3.79408859
H   -2.65292188  -1.11509013  -4.18026185
O    1.19438180  -1.29276066  -1.29851264
H    2.14534168  -1.23322301  -1.38995893
H    0.91442130  -1.82416805  -2.04380463
O   -1.67885752  -1.27890524  -0.76650881
H   -2.06394133  -1.40758302  -1.63333309
H   -2.26594633  -1.74524875  -0.17146065
O    1.63073189   1.72384718  -3.84466060
H    1.58550891   2.47914041  -4.43093602
H    2.32878242   1.94110238  -3.22679533
O    2.50269651  -0.81008443  -4.60431985
H    2.89753496  -0.85912237  -5.47491145
H    2.20097639   0.09513131  -4.52828519
O   -2.33255142   1.89757881   3.78751343
H   -2.67211701   2.26330077   4.60432093
H   -1.99935703   2.65466368   3.30581244
O    1.42097177   1.33249850   0.01281818
H    2.15610969   1.58762490  -0.54459962
H    1.57398457   1.79340080   0.83767453
Ca  -0.11604955   0.01680553  -0.38249349
