61
Energy:  -2131.97338817
O   -4.09090651   1.30991353   0.74759832
H   -4.01302863   0.87060168   1.59445839
H   -4.96451038   1.70094523   0.75952888
O    1.11365486  -1.04635815   3.40860591
H    1.62607092  -1.81639160   3.65500014
H    0.62011908  -0.82386937   4.19800634
O   -0.84313722  -0.68579324   1.54205653
H   -0.16811155  -0.95365841   2.16561122
H   -1.63887125  -0.60824711   2.06838894
O   -0.38311702  -0.19254120   5.47424424
H   -0.97944789   0.54065483   5.32243871
H   -0.42688307  -0.34603485   6.41804299
O    3.39167311   0.64614447  -1.68035971
H    3.63104165  -0.23559949  -1.96577547
H    4.22801743   1.07521766  -1.49964939
O   -3.13528241  -0.08862213   2.93171289
H   -3.61879977  -0.73478104   3.44641812
H   -2.83999448   0.55719178   3.57355500
O   -0.53109288   0.93139489  -2.24610142
H    0.22492442   1.15185130  -2.79022334
H   -1.21575622   0.69388020  -2.87144511
O    2.36419198  -2.75538325  -0.45665446
H    2.94600231  -2.57298934  -1.19453050
H    2.68373796  -3.58334135  -0.09803543
O   -0.53211469  -2.41900789  -3.68629292
H   -0.67440043  -3.31770269  -3.98350373
H    0.27610929  -2.14747883  -4.12135362
O    1.94136706   1.43878265   2.61570321
H    2.77808911   1.72070096   2.98536538
H    1.77513604   0.58721856   3.01997751
O    3.74465613  -1.88470995  -2.69205450
H    4.53765985  -2.30122317  -3.02953589
H    3.14990146  -1.85823750  -3.44158631
O   -1.39741226   1.88946918   0.45036863
H   -1.03684451   2.39242302   1.18061529
H   -2.34445268   2.00940998   0.52079935
O   -0.33095878   3.00732270   2.71400624
H    0.51269831   2.56477762   2.80689551
H   -0.12467163   3.93795713   2.80116718
O   -2.50531151  -0.47357170  -3.56146047
H   -3.13609918  -0.38856420  -4.27638179
H   -1.96103099  -1.22096405  -3.80924108
O    0.02310092  -1.64380376  -1.12016994
H   -0.19132130  -2.03143512  -1.96869625
H    0.80729871  -2.11200729  -0.83372426
O   -2.60825332  -0.38889773  -0.80473668
H   -2.88959334  -0.55756762  -1.70397530
H   -3.36055543   0.03701941  -0.39380120
O    1.71468114   1.21602325  -3.77752954
H    1.92846261   1.98686018  -4.30320983
H    2.41519808   1.16734487  -3.12703874
O    1.84478951  -1.41213148  -4.66475636
H    2.06363658  -1.49972520  -5.59247677
H    1.78822265  -0.46768501  -4.51966018
O   -2.04411149   1.82970923   4.56445607
H   -2.46476356   2.47053601   5.13771406
H   -1.46862181   2.35030043   4.00407380
O    1.27052247   0.71102661   0.07075320
H    2.04645919   0.67145724  -0.48834279
H    1.60252004   0.99558388   0.92224402
Ca  -0.66351307   0.12704852  -0.34329828
