61
Energy:  -2132.63832329
O   -1.14541241   0.53692110   1.01334395
H   -1.33229816   1.47329234   1.08053370
H   -1.38182796   0.18289292   1.87066746
O   -0.48150979   1.14708363   5.36747512
H   -0.76910831   2.04384452   5.53876098
H   -0.17094449   0.82863316   6.21504243
O    1.57593121  -0.23951425   1.47403115
H    1.57881881   0.49606929   2.08651818
H    1.52500579  -1.01587806   2.03161314
O   -1.09920185   3.85716802   5.67978695
H   -2.01546975   4.10250016   5.80822811
H   -0.63508256   4.27418223   6.40568245
O    2.34711845   1.79278773  -2.83483293
H    3.04520704   2.27718737  -3.27558359
H    1.72349886   1.58434855  -3.53045033
O    0.35584503  -2.43668166   2.69545156
H    0.57303483  -3.14452686   3.30209446
H   -0.32711391  -1.93767523   3.14354922
O   -0.78930040   0.05285639  -1.87190194
H   -1.56763995  -0.48414437  -2.02039297
H   -0.53411234   0.35207172  -2.74458807
O   -1.48815516  -3.36161845  -4.11200454
H   -1.91110490  -3.90426679  -4.77749545
H   -0.83975147  -2.85015940  -4.59596130
O   -0.04228937  -4.06814985  -1.87866036
H   -0.62997207  -3.92572589  -2.62066865
H   -0.14775225  -4.99485442  -1.66342082
O    1.05155401   1.78628219   3.15780988
H    0.91488337   2.73298702   3.12171375
H    0.66247722   1.51921808   3.99059308
O    1.97675362  -0.56324079  -1.45295588
H    2.39226821   0.13498288  -1.95898273
H    2.15866945  -1.36076008  -1.95004890
O   -1.08205861   3.31320203   0.88440429
H   -0.75069290   3.73518857   1.67709337
H   -1.75252220   3.91224373   0.55598466
O    0.03190385   4.37231820   3.17430730
H   -0.39115838   4.29033318   4.02901698
H    0.49128942   5.21116809   3.21339198
O   -2.78193822  -1.66612769  -2.35225977
H   -3.73693889  -1.72984109  -2.36435010
H   -2.49142842  -2.28863775  -3.01883094
O    2.15342629  -2.82801842  -2.97883592
H    1.49801566  -3.41120519  -2.59600183
H    2.93939822  -3.36873306  -3.05698733
O   -0.08314520  -2.06025835   0.01266520
H   -0.18318750  -2.79353261  -0.59440337
H   -0.03666266  -2.46890154   0.87700424
O    0.23633393   0.74258487  -4.31874729
H    0.38249405  -0.12711320  -4.69089556
H   -0.23942014   1.21815467  -4.99971960
O    0.64524682  -1.87340823  -5.09752396
H    1.01980854  -2.07221848  -5.95566722
H    1.28039623  -2.22182462  -4.47188581
O   -1.55920109  -0.59079903   3.49948520
H   -1.24587494  -0.00111453   4.18529185
H   -2.42707174  -0.86447869   3.79635527
O    0.91375168   1.91237455  -0.44070203
H    1.42740999   2.27449712  -1.16268142
H    0.40524497   2.65389937  -0.11238250
Ca   0.40817217  -0.07074942  -0.20389151
