61
Energy:  -2133.26104139
O   -3.56044383  -0.72291901   1.15225075
H   -3.46225907  -1.14159811   2.00741121
H   -4.50665451  -0.67452406   1.01596015
O    0.87731090   0.43042816   3.72112829
H    1.54403327   0.18765705   4.36360422
H    0.04603739   0.30492434   4.17880175
O    0.49731731  -0.97147306   1.40947638
H    0.69923566  -0.53668409   2.23798069
H    0.08793293  -1.79790690   1.66568602
O   -1.57199760   0.00924517   4.86936997
H   -2.04845475   0.77227083   4.54224269
H   -1.67090196   0.05415080   5.82038693
O    3.13651274   2.21669359  -1.97962775
H    3.65791087   1.41782599  -2.05828140
H    3.78245544   2.92202659  -1.94095953
O   -1.11739647  -3.14776784   1.75222860
H   -1.76682363  -2.85678119   2.39238716
H   -0.96385439  -4.06775955   1.96733772
O   -0.41572027   0.42967132  -2.36245422
H   -0.96351419  -0.13404070  -2.90869814
H    0.11516522   0.92538800  -2.98587817
O   -2.88790732  -1.99197310   3.51025940
H   -3.49632909  -2.43259170   4.10347946
H   -2.45799249  -1.33199183   4.05416179
O    1.06406841  -2.63250952  -3.63183679
H    1.63994388  -2.06407262  -4.14318674
H    1.32054194  -3.52045620  -3.88084255
O    1.10464703   2.74702581   2.23993921
H    1.68532754   3.39564371   2.63785480
H    1.05598439   2.04102088   2.88447070
O    4.05504896  -0.35609554  -2.26303479
H    4.93589141  -0.72061334  -2.17657556
H    3.80251521  -0.55023871  -3.16567923
O   -1.51873510   0.81906361   0.34805708
H   -1.61934387   1.70180806   0.70424797
H   -2.31078315   0.35746038   0.62340088
O   -1.53968557   3.25249543   1.59114503
H   -0.63042866   3.28873674   1.88807984
H   -1.74184294   4.15004567   1.32700906
O   -1.59005737  -1.78457751  -3.50316386
H   -0.77724462  -2.21376150  -3.77031245
H   -2.22432633  -2.03166009  -4.17613112
O    1.62516210  -1.25616521  -1.32147020
H    2.53970926  -1.00467303  -1.45026081
H    1.44562595  -1.87788830  -2.02677796
O   -1.15469816  -1.85840741  -0.75793842
H   -1.59245559  -2.12375285  -1.56675983
H   -1.47586325  -2.47328264  -0.09838305
O    1.39252698   1.62837833  -4.03809405
H    1.18115603   2.32776402  -4.65649022
H    2.02523681   2.02224049  -3.43744214
O    2.75137292  -0.71237475  -4.68712185
H    3.12994308  -0.73061983  -5.56608920
H    2.26924772   0.11373137  -4.65057309
O   -2.81237040   2.15311227   3.80214766
H   -3.53477935   2.70042515   4.11005309
H   -2.46652169   2.61838656   3.04047821
O    1.29326575   1.39737539  -0.13678765
H    1.95370180   1.78297035  -0.71243736
H    1.31924534   1.93688267   0.65345839
Ca   0.05451176  -0.21899731  -0.45717384
