61
Energy:  -2133.82735253
O   -2.37477792  -0.26304467   3.13777543
H   -2.32811856   0.56511467   3.61548545
H   -3.27556772  -0.56172289   3.26267897
O    1.07936703   2.07017062   3.19898163
H    0.86719111   2.35197529   4.08881271
H    1.13038378   2.88275073   2.69565003
O    1.23439239  -0.22344639   1.82276724
H    1.31808620   0.54339712   2.38949313
H    0.97232914  -0.93031029   2.41259615
O    0.04291968   2.84234353   5.67207247
H    0.21166647   3.73336449   5.97840238
H    0.28595661   2.28447788   6.41095731
O    2.99679233   1.39862971  -2.34266377
H    3.81164946   1.78522470  -2.66326324
H    2.48051605   1.23765383  -3.13245958
O   -0.38162403  -2.19471550   2.92158726
H   -0.31085592  -2.87139819   3.59488085
H   -1.10547160  -1.64055113   3.21344064
O   -0.46284203   0.13007943  -1.89912901
H   -1.27466311  -0.30279403  -2.16332393
H   -0.02987041   0.35188163  -2.72349010
O   -1.24214809  -3.27186142  -4.08819033
H   -1.61663406  -3.79530851  -4.79670656
H   -0.45668167  -2.87927016  -4.46917123
O   -0.31318547  -4.02877386  -1.61007852
H   -0.73926404  -3.85393956  -2.44919822
H   -0.58176781  -4.91966592  -1.38556413
O    0.75772938   4.04844647   1.28284858
H    0.97336481   4.97919128   1.22413480
H   -0.19225458   4.02902903   1.39854335
O    2.07976085  -0.80240423  -0.96612685
H    2.67662046  -0.20529655  -1.41718434
H    2.22213570  -1.64909744  -1.38929567
O   -1.27261328   0.78239052   0.85932572
H   -1.50265118   1.70654229   0.95554378
H   -1.73615248   0.34413634   1.57297587
O   -1.88760535   3.35040857   1.64302257
H   -2.04496403   3.09119159   2.55091940
H   -2.65065794   3.87862308   1.40856143
O   -2.57793580  -1.32499242  -2.65034530
H   -2.26282080  -2.01825496  -3.23027756
H   -3.50972744  -1.24617738  -2.85475760
O    2.18820262  -3.15793937  -2.35369406
H    1.40292008  -3.62763000  -2.07270672
H    2.89302374  -3.80095359  -2.27628773
O   -0.36588632  -1.92987678   0.17858745
H   -0.47025290  -2.67443528  -0.41384155
H   -0.47903486  -2.30155425   1.05339321
O    1.04957504   0.55314649  -4.14440155
H    1.13356648  -0.34771703  -4.45684710
H    0.76886050   1.04877586  -4.91367570
O    1.21254153  -2.13804755  -4.73974776
H    1.69477954  -2.43595644  -5.51106394
H    1.67777523  -2.52885190  -4.00011176
O   -2.26031612   2.30990899   4.20089020
H   -1.48158895   2.48393133   4.72959812
H   -2.99032059   2.60815744   4.74345189
O    1.22242763   1.85383205  -0.26876177
H    1.89605252   2.02111457  -0.92791116
H    1.14519682   2.67896392   0.21022115
Ca   0.40236279  -0.02390122  -0.04285361
