61
Energy:  -2137.93939673
O   -3.44760116   0.75587951   1.99912744
H   -3.26197836   0.56624864   2.91881008
H   -4.38416634   0.95252501   1.97892716
O    1.91816965   1.00082219   3.78750011
H    2.50423309   0.67759507   4.47181416
H    1.15733593   1.33611558   4.26178086
O    0.64015106  -0.51064546   1.89672554
H    1.17736250  -0.07110024   2.55584292
H    0.08253926  -1.10485041   2.39894203
O   -0.44437257   2.08417337   4.71536561
H   -0.49756902   2.69745993   3.98237067
H   -0.47912046   2.63841502   5.49500696
O    2.81790160   1.49130566  -2.67438818
H    3.44745540   2.14164379  -2.98576283
H    2.10582397   1.52147480  -3.31334601
O   -1.39673686  -1.94622311   3.00476714
H   -1.46796468  -2.78525356   3.45994440
H   -1.81153506  -1.31704756   3.59494714
O   -0.75231704   0.41624583  -1.87855125
H   -1.50797700  -0.09515519  -2.16782427
H   -0.36691469   0.75340285  -2.68726753
O   -1.07458364  -3.08519453  -3.92649675
H   -1.36532064  -3.67352014  -4.62333018
H   -0.34958821  -2.59451619  -4.31359913
O   -0.16662967  -3.79857352  -1.41308707
H   -0.49420036  -3.72844995  -2.30975422
H   -0.11503851  -4.74026006  -1.24939022
O    2.37741660   2.88247347   1.83198321
H    3.16286677   3.42338638   1.91391674
H    2.41738437   2.28646364   2.57991817
O    2.99017328  -1.26514020  -2.81875523
H    3.16624816  -0.32427490  -2.82016308
H    3.85683759  -1.67147685  -2.81483757
O   -1.14140525   1.48914301   0.84502875
H   -0.88822166   2.29402519   1.29701835
H   -2.01821436   1.29388426   1.17565186
O   -0.24423880   3.57684440   2.37353637
H    0.69596057   3.57574011   2.19393741
H   -0.50694300   4.49163878   2.27170524
O   -2.66360828  -1.47204176  -2.34640712
H   -3.57378409  -1.45922863  -2.64246061
H   -2.22668405  -2.08259571  -2.94016881
O    1.11284557  -1.51315515  -0.84040666
H    0.72766410  -2.38033041  -0.96639934
H    1.84812389  -1.48589464  -1.45266029
O   -1.57404221  -1.32511911   0.25521993
H   -1.89053956  -1.70829544   1.07328910
H   -2.14712656  -1.69085583  -0.41860706
O    0.55625746   1.08229031  -4.18872979
H    0.20421483   1.60250100  -4.91100306
H    0.67681334   0.20795269  -4.55917798
O    1.07337764  -1.55468129  -4.81734166
H    1.46020777  -1.81253116  -5.65406607
H    1.79740766  -1.60320721  -4.19311606
O   -2.42419320   0.13968584   4.49381351
H   -1.76494319   0.81434465   4.65646887
H   -2.90928093   0.07487244   5.31644403
O    1.55369166   1.30801880  -0.25193054
H    2.06403472   1.46550828  -1.04627232
H    1.93293459   1.89943745   0.39816994
Ca  -0.01170367  -0.00983609   0.00189154
