25
Energy:   -807.53594451
O   -1.79992952  -1.01438992   1.48394954
H   -2.48139380  -1.51750803   1.92971904
H   -1.31504552  -1.66474681   0.97585970
O    2.14230924   0.92749593  -1.69459695
H    2.71993626   1.27411942  -2.37461976
H    1.38473828   0.58983096  -2.17240492
O    0.05906413  -2.49156827  -0.02969217
H    0.33031068  -3.38852101   0.16558440
H   -0.07977694  -2.48363014  -0.97673599
O    0.18811902   0.55440577   2.55278166
H    0.17290856   0.87596000   3.45422682
H   -0.56905368  -0.02812655   2.49296996
O   -1.89478504   1.06443711  -0.39254790
H   -2.70068331   1.58011217  -0.42151461
H   -2.07567662   0.37197737   0.24306958
O   -0.32048972  -0.04951598  -2.43590284
H   -0.98787182   0.34586966  -1.87509701
H   -0.73232455  -0.10236689  -3.29835904
O    0.62719408   1.95000676   0.37979855
H    1.14513247   1.94096468  -0.42511754
H   -0.28191778   1.94518075   0.08025858
O    1.75891828  -0.36808291   0.66269675
H    2.16130087  -0.10395798  -0.16468353
H    1.30735533  -1.18718645   0.45924619
H    0.93222952   0.75177797   1.23361372
