25
Energy:   -810.48721887
O    0.84023067  -0.01872251   1.77427408
H    0.99030758  -0.94455197   1.58309729
H    1.36915632   0.44864456   1.12771586
O    0.80293551   0.05977735  -2.53571699
H    1.45128201   0.30974035  -1.87738792
H    1.31068951  -0.06427370  -3.33760791
O   -1.41589677   0.21732446   3.07817957
H   -2.36190527   0.28637856   3.20675371
H   -1.05778959   0.14874109   3.96321483
O   -1.37291552   0.32530335   0.45424438
H   -1.24105398   1.08244292  -0.11635536
H   -1.39128938  -0.42377689  -0.14138389
O   -0.51017311   2.24149160  -1.31478390
H   -0.26996453   1.64225570  -2.02150027
H   -0.92173012   2.98311566  -1.75845768
O    1.95128855   1.37462998  -0.30451469
H    2.74180102   1.91131292  -0.24712742
H    1.26416911   1.98684736  -0.56774198
O   -0.91638551  -1.72245359  -1.31330311
H   -0.31846361  -1.22048643  -1.86715347
H   -1.46978584  -2.20149824  -1.93014681
O    0.46033497  -2.54674391   0.95854495
H    0.68511000  -3.46878666   1.08322533
H    0.02140485  -2.51957337   0.10834852
H   -0.62454608   0.17005279   1.76016506
