25
Energy:   -809.81950748
O    0.42694118   0.38412292  -2.58121513
H    0.11114100   0.83538718  -3.36407058
H    1.35617480   0.60872805  -2.53316044
O   -1.34149034   0.63530780   2.38565646
H   -1.34087854   1.43753614   2.90782614
H   -1.85525197   0.01371285   2.90131193
O   -0.56194005  -2.08947571  -1.77742749
H   -0.54128603  -2.79288010  -2.42629382
H   -0.16505259  -1.34070969  -2.22246865
O    2.35513206   1.72896426   0.41295154
H    2.73680770   1.56321195  -0.44907034
H    3.03395597   2.20850353   0.88779049
O    3.10482544   1.09908031  -2.21745030
H    3.48109269   1.80914688  -2.73750825
H    3.73869887   0.38564238  -2.29122448
O   -1.51607972  -1.24109675   0.58902940
H   -1.24348014  -1.66685611  -0.22377456
H   -2.01185654  -1.91282449   1.05723772
O   -2.77976907  -1.41601200   3.46086824
H   -2.44936081  -1.99665638   4.14637122
H   -3.72815876  -1.40742409   3.59015514
O   -0.18970013   0.94080407   0.04599167
H    0.66572758   1.29612652   0.28728245
H   -0.12532742   0.77842619  -0.89513607
H   -1.00020641   0.13137544   0.98414471
