25
Energy:   -809.76709740
O   -1.32369584  -1.46002175   1.50451803
H   -0.79211502  -0.90550738   2.07562879
H   -1.85056887  -1.98750402   2.10485052
O    1.81115314   1.57512021  -2.05055670
H    2.71020013   1.75319610  -2.32666415
H    1.44947511   1.02895850  -2.74850243
O    0.69999927  -2.26336468  -0.24126829
H    0.97067199  -3.18148718  -0.23688535
H   -0.03868368  -2.22803382   0.36645787
O    1.50189601   0.32634145   0.25067959
H    1.22984519   0.40627707   1.16491725
H    1.42027707  -0.60745208   0.05677280
O   -2.28625048   0.27864350  -0.43941843
H   -3.23884482   0.26141837  -0.53160933
H   -2.10014111  -0.36022789   0.24865024
O   -0.12742135  -0.39884912  -2.13279608
H    0.12281626  -1.24381981  -1.75911504
H   -1.04328345  -0.28577852  -1.87854523
O   -0.25371398   2.11340038  -0.50192545
H   -1.06431086   1.60676627  -0.45206145
H   -0.52435878   2.96640953  -0.84157031
O    0.44156159   0.26919123   2.81714109
H    0.08795287   1.05611084   3.23180993
H    1.04744257  -0.09156424   3.46443976
H    1.01180663   1.27607288  -0.80266974
