25
Energy:   -808.34890420
O   -0.21102210   1.62234832  -2.01766490
H   -0.16095613   2.19763545  -2.78105862
H   -1.09252648   1.25108494  -2.05434409
O    1.55964745  -0.32401259  -1.23337632
H    1.00087570   0.34660770  -1.62615413
H    2.13260849  -0.60663231  -1.94616914
O    0.94358979  -1.22245913   3.41916169
H    1.52732010  -1.74396496   3.97009040
H    0.25769880  -0.92057686   4.01468876
O    0.57135684   2.39737114   0.55306641
H    0.52971352   3.33241239   0.75355468
H    0.23329498   2.32807801  -0.33976307
O    2.02330981   0.24609220   1.28346696
H    1.80287451   0.00355890   2.18280990
H    1.65340481   1.12206749   1.17360598
O    0.66092162  -1.86384839   0.68806851
H   -0.22311033  -1.91563681   0.32469912
H    0.53641621  -1.94029668   1.63405260
O   -2.71568186   0.42740520  -2.03059601
H   -3.07947662   0.14549507  -2.86988852
H   -3.42490992   0.91687269  -1.61388389
O   -1.79341345  -1.66262728  -0.41452089
H   -2.14564953  -0.96827855  -0.97133454
H   -2.44267701  -2.36408431  -0.46596718
H    1.45422461  -0.67371135   0.26197912
