25
Energy:   -808.18109602
O   -1.11585820   0.05553745   2.83394821
H   -1.82141744  -0.07866007   3.46672702
H   -1.14118173  -0.72295511   2.27758511
O    2.06865099  -0.36929201  -1.97006452
H    2.71560490  -0.44938987  -2.67096881
H    1.30425253   0.02232033  -2.39263594
O    1.45210537  -0.21401650   0.64052859
H    1.80522686  -0.35539301  -0.23785045
H    0.82990172  -0.93029055   0.76720125
O    1.01539654   1.65435164   2.41095693
H    1.64319436   1.79118423   3.12044871
H    0.27311311   1.21723236   2.82829837
O   -1.88705399  -1.50842830  -1.61878391
H   -1.73888138  -2.22406763  -2.23695628
H   -2.83956976  -1.42897717  -1.56747031
O   -0.69854825  -1.90201724   0.88069401
H   -0.65037745  -2.84372140   1.04532909
H   -1.14338930  -1.82845182   0.03633839
O    0.47830509   2.08139506  -0.12240325
H    0.26053049   3.01320348  -0.14562244
H    0.13645023   1.73443977  -0.94641121
O   -0.45922047   0.77630521  -2.36429810
H   -0.86911864   1.14542500  -3.14658060
H   -1.00037541   0.01783028  -2.14498337
H    1.03330998   1.16533414   0.99251023
