25
Energy:   -808.49737178
O   -0.80097263  -0.11005787  -3.41304994
H   -0.74032924  -0.84360012  -4.02498948
H   -1.27455880   0.56704493  -3.89624739
O   -1.61967631  -2.13830632   0.13691498
H   -1.31232728  -1.86889304   1.00246966
H   -2.25250109  -2.83456626   0.31294546
O    1.58106289   2.15470736   0.64986382
H    0.74572050   2.17277095   1.11688486
H    2.02981763   2.95250791   0.92980186
O   -0.32098829   1.26704269  -1.22837521
H    0.46566044   1.76593196  -1.00809104
H   -0.87001514   1.32709537  -0.44658556
O   -0.27817657  -1.00241453   2.29090658
H    0.59520188  -0.96419042   1.90105936
H   -0.13399599  -1.35649272   3.16844430
O   -1.04978960   1.50718473   1.44254687
H   -1.75757389   1.90574802   1.94892671
H   -0.90396265   0.65857028   1.86066152
O    2.00900895  -0.55900000   0.75028479
H    2.91419493  -0.82724298   0.90813244
H    2.03580382   0.39767739   0.76708516
O    0.38952294  -1.22887599  -1.36945709
H    1.07823153  -1.09512975  -0.71828564
H   -0.27294455  -1.74906199  -0.91473167
H   -0.23379545  -0.04346881  -1.98849407
