25
Energy:   -810.49686495
O    0.10248155  -1.95206359   1.07679437
H    0.00329992  -2.76874390   1.56610831
H   -0.49157315  -1.33911386   1.50994964
O   -0.05565318  -0.48328011  -2.79414293
H   -0.17893528  -0.73579590  -3.70916706
H    0.51683863  -1.16029207  -2.43339401
O    1.69197891  -1.90252837  -1.15003273
H    2.17591883  -2.72173505  -1.25460051
H    1.13112483  -2.05062607  -0.38862507
O   -1.38764972   0.09970009   2.25104626
H   -2.01640322   0.47397761   1.63394236
H   -1.87600413   0.01585692   3.07001643
O   -2.80598560   1.31378546   0.19362434
H   -3.24022226   2.15860729   0.31171939
H   -3.42193649   0.79802421  -0.32678577
O   -0.21792546   1.30128634  -0.79493059
H   -1.13531805   1.37923966  -0.53311775
H   -0.23934116   0.76552051  -1.58785441
O    0.91029432   1.41841586   1.55380658
H    1.55293675   1.55113348   2.25067714
H    0.15260215   1.03536056   1.99585075
O    2.30792050   0.68256683  -0.54417547
H    2.29503493  -0.23812656  -0.80568930
H    3.04259966   1.05934047  -1.02844812
H    0.99948794   1.17148226   0.05754493
