25
Energy:   -807.48138635
O   -0.00240317  -0.46472720  -0.21690259
H    0.19859987  -0.09984643   0.64489300
H    0.85012984  -0.70164770  -0.58198887
O    0.71294001  -1.84468066  -3.38662806
H    1.46623159  -1.65821174  -2.82625943
H    1.09490689  -2.07240588  -4.23425673
O   -2.21637597   1.03444057   2.17987415
H   -1.28826264   0.95187832   2.39901102
H   -2.62928954   1.32933430   2.99152181
O    2.45748692  -1.14916926  -1.33141618
H    3.09706233  -0.45321831  -1.48250361
H    2.96858819  -1.86836488  -0.96024909
O    0.49695771   0.56532277   2.28494016
H    0.85855264   0.06927671   3.01939184
H    0.95119950   1.40725948   2.31717115
O   -1.56299317  -1.58315396  -2.00179315
H   -0.81131578  -1.73385350  -2.57494462
H   -2.22801050  -2.19803119  -2.31148620
O    1.76071627   2.97232763   2.42760170
H    2.58343409   3.19231955   2.86460374
H    1.37510291   3.81881356   2.20177932
O   -2.54560965   0.17002476  -0.33068694
H   -3.35547488   0.52374796  -0.69842334
H   -2.51948980   0.51017671   0.56365430
H   -1.37800324  -0.62492232  -0.84840539
