25
Energy:   -808.28459400
O   -0.68964351  -0.31776985   1.54615268
H   -0.56088559  -1.24400545   1.34184691
H   -1.38861259  -0.03667971   0.95567625
O    1.51935963   0.60391219   0.53355040
H    1.24214637   1.35165584   0.00415065
H    1.66044922  -0.09957207  -0.10003896
O    1.35577333  -1.33262992  -1.41142122
H    1.98637407  -1.58651843  -2.08530190
H    0.66229587  -0.87889245  -1.89042349
O    1.11529586   0.75637047   3.11691618
H    1.96209209   1.13240626   3.35725980
H    0.66107885   0.63538833   3.95075195
O   -2.58543516   0.38938025  -0.33884309
H   -2.93527001   1.27846071  -0.28067640
H   -3.35742950  -0.17524938  -0.30076474
O   -0.71880201   0.22567486  -2.40368879
H   -1.44372166   0.20215429  -1.77905279
H   -1.13844148   0.15524386  -3.26111170
O    0.30291763   2.41578017  -1.02298183
H    0.49020500   3.22435785  -1.49980196
H   -0.02875542   1.81499858  -1.69027960
O    0.17905025  -2.70168242   0.70105212
H    0.25361499  -3.65338948   0.77123493
H    0.62606624  -2.48563723  -0.11732007
H    0.64181451   0.34396113   1.70278874
