25
Energy:   -807.48527885
O    3.70999599  -0.70634839   1.87032232
H    3.81822329  -0.04776050   2.55645692
H    4.33371861  -1.39558215   2.09870527
O   -0.41551666  -0.15570459  -0.26142086
H    0.53227604  -0.27454291  -0.32305132
H   -0.73636618  -0.97597523   0.11333707
O   -2.63121718   1.24500932  -0.22087941
H   -3.12090279   0.46016044   0.02499065
H   -3.22211931   1.97007484  -0.01754097
O    2.10085651   2.24896148  -1.12306693
H    2.37812592   1.36211932  -0.89314408
H    2.91684300   2.74377191  -1.19763585
O    2.31704730  -0.41623050  -0.45238000
H    2.78997130  -0.52528483   0.37265448
H    2.77214092  -0.99115288  -1.06767335
O   -1.38877051  -2.53755406   0.80725410
H   -1.15955263  -2.76983023   1.70710898
H   -1.28175146  -3.35127376   0.31467008
O   -3.74266243  -1.09655536   0.45035710
H   -3.06758269  -1.74901703   0.63688579
H   -4.56884296  -1.56165544   0.58203659
O   -0.54383298   2.14847959  -1.50877387
H    0.40045799   2.27857893  -1.42147796
H   -0.80260435   2.73690454  -2.21801664
H   -1.19966305   1.08486703  -0.66577796
