22
Energy:   -584.12840632
O   -0.97474189   2.14425249   0.62820843
H   -0.36080600   1.94268288   1.33438424
H   -1.37152829   2.97649731   0.88542614
O   -0.85937926  -1.95614760  -1.13442295
H   -1.61714011  -1.46180159  -0.82192917
H   -1.22425609  -2.78617908  -1.44125269
O    2.23484502  -1.59513736  -1.98507991
H    2.17407520  -2.27347078  -2.65768874
H    3.12872559  -1.26130055  -2.06099011
O    1.20724949  -0.91776436   1.00643433
H    1.20462600  -0.17400546   1.60896870
H    1.32669579  -1.68246404   1.56963841
O    1.04535240   1.37473899   2.55493906
H    1.77254199   1.99473024   2.61005713
H    0.62815750   1.41705766   3.41539789
O    0.31353124   0.94632043  -1.46560485
H    0.26113002   1.46495103  -2.26841758
H   -0.17101817   1.45762866  -0.81752491
O   -2.86909025  -0.44729897  -0.06701761
H   -2.76470834   0.48796589   0.10795640
H   -3.80465419  -0.61080666   0.05221829
Li   0.75239049  -0.89581708  -0.90367684
