22
Energy:   -577.19725822
O   -1.95261441   1.37646792   1.87126632
H   -1.81987820   1.69129488   2.76541224
H   -2.62410821   1.95525505   1.51024917
O   -1.52289414  -1.80937309   2.02473090
H   -2.29994616  -2.36830512   2.02060940
H   -0.94584799  -2.20543268   2.67771359
O    2.02233653  -1.77743982  -0.96966807
H    2.97657779  -1.78237572  -1.04470877
H    1.75961306  -2.67098218  -1.19055329
O   -1.80411715  -0.24580057  -0.85760684
H   -2.55418155  -0.40820669  -1.42967282
H   -1.07529231  -0.08567144  -1.45711070
O    0.45883342   0.19663311  -2.24725348
H    0.90148140   0.98171021  -1.92484291
H    1.06010329  -0.51929651  -2.04194601
O    0.78568680   0.00165161   0.81181479
H    1.12375117   0.82590503   0.46174246
H    1.26268205  -0.67609005   0.33288512
O    1.64667242   2.22221062  -0.67270296
H    2.58503807   2.39703577  -0.74438233
H    1.23569296   3.08344137  -0.74759838
Li  -1.15020869  -0.18405151   0.98492140
