22
Energy:   -590.02787271
O    0.12182545   0.82581256   3.34172997
H    0.01229863   0.23904838   4.09002370
H    0.17505975   1.69998983   3.72800975
O   -1.51746344   0.50015806   1.10764418
H   -2.37804227   0.29797552   1.47473835
H   -0.95315508   0.62095769   1.87131647
O    1.01270653   0.04169742  -0.82604597
H    1.24186989  -0.78375422  -1.25306541
H    1.53942505   0.05279224  -0.02687368
O   -1.59937589  -1.06472855  -1.75586750
H   -2.36706944  -1.41431810  -2.20826732
H   -0.88709033  -1.65566299  -2.00015752
O    0.80722505  -2.40636511  -2.22269649
H    1.19794259  -2.47014469  -3.09419165
H    1.01905031  -3.24021999  -1.80311582
O    2.18525949   0.10806839   1.60892532
H    1.57550471   0.35520723   2.30416151
H    3.04887294   0.15587231   2.01894781
O   -1.12934653   2.19302953  -1.64508042
H   -1.86198767   2.79963018  -1.75233924
H   -0.39480730   2.62428228  -2.08177829
Li  -0.88394259   0.46556536  -0.74707596
