22
Energy:   -594.19050011
O   -1.32529873  -0.01463370  -2.43391598
H   -1.95224736  -0.17696112  -1.72906347
H   -1.85202176  -0.03454359  -3.23291428
O    2.57043922   0.33425221   1.06719169
H    3.50569110   0.47613410   1.21349716
H    2.20798903   0.20119219   1.94306653
O    1.09218164  -1.20999729  -1.63641567
H    0.28621814  -1.06017207  -2.13058880
H    1.51768447  -1.93964009  -2.08674950
O    0.60552091   1.74307523  -1.38917003
H    0.76411966   2.63302933  -1.70390799
H   -0.12354573   1.42629738  -1.92241057
O    1.05946314  -0.10849708   3.38133588
H    1.19959784  -0.89883958   3.90282687
H    0.95426646   0.58984171   4.02746932
O   -2.94603556  -0.46939835  -0.19213055
H   -3.62829056   0.17109133   0.00919740
H   -3.38297346  -1.31759329  -0.11543338
O   -0.37281253  -0.13572474   0.88717379
H   -1.30630739  -0.27629983   0.72887709
H   -0.27825454  -0.19970198   1.83754085
Li   1.16343837   0.21561391  -0.28534049
