22
Energy:   -581.19440800
O    2.27615501  -0.11178804   1.38850657
H    2.47810781  -0.99896825   1.68575762
H    3.10664995   0.35917303   1.45710451
O   -1.40239566  -1.23401722  -1.88476873
H   -1.14130827  -1.99215131  -2.40754777
H   -2.28273212  -1.02078790  -2.19424059
O   -2.21697445  -2.37691033   2.67932587
H   -2.04984740  -3.25698044   3.01663434
H   -3.05069105  -2.12260276   3.07489651
O   -0.01742340   2.09946457   1.64724557
H   -0.31950135   2.89854387   1.21544350
H   -0.10104316   2.28572150   2.58241825
O    0.43332705   0.79131941  -1.21532899
H    0.92350840   1.22976124  -1.91083086
H   -0.15719026   0.19576262  -1.67666754
O    1.82181591   2.02903875  -3.21051312
H    1.56873281   2.83344270  -3.66340944
H    2.61178457   1.73620247  -3.66485692
O   -0.71471446  -1.03887535   0.83718346
H   -1.23767771  -1.50623404   1.48857976
H   -1.09308928  -1.29590285  -0.00365018
Li   0.52602665   0.46291817   0.70699520
