22
Energy:   -581.82140002
O    0.64586772   1.94339744  -0.69500513
H    0.97010905   2.72899346  -1.13538938
H    0.98416559   1.21748270  -1.21925143
O   -1.75598967  -1.88311983   1.75822413
H   -2.18386980  -2.45829957   1.12393814
H   -1.83372889  -2.34591237   2.59249719
O    1.41356478  -0.56570063  -1.67382391
H    0.91384282  -0.94892784  -2.39468916
H    2.30685410  -0.88338254  -1.80552145
O   -1.92079980   1.12726655   1.28872701
H   -2.69355783   1.61162010   0.99807514
H   -2.26669361   0.29575765   1.61304518
O    0.58639381  -0.57190260   0.98572371
H   -0.09459370  -1.20140413   1.22282216
H    0.88636340  -0.85662425   0.12248349
O    1.10571093   2.09335394   2.54921050
H    1.64310012   1.50557982   3.08021548
H    1.25883313   2.96137823   2.92246546
O    0.09293736  -1.64017532  -3.81455405
H    0.12190913  -1.10535501  -4.60787600
H   -0.32708711  -2.45509771  -4.08971363
Li   0.06215582   1.30436294   1.08378257
