22
Energy:   -593.68400051
O   -0.28881732   1.55208627   1.83541552
H    0.17381415   0.80964252   2.22397856
H   -0.54634632   2.09207664   2.58262437
O   -1.56786488  -2.00119553  -2.39465520
H   -1.65494064  -1.95343947  -3.34668935
H   -2.10868637  -2.74927230  -2.14142584
O    0.52066689  -1.77675640   0.07749757
H    1.10010851  -2.52990138  -0.03761929
H    0.70912622  -1.46188173   0.96156141
O    1.04629482  -0.75258551   2.61944896
H    1.97154072  -0.61717771   2.82394004
H    0.70992343  -1.26300455   3.35603469
O    1.25593043   2.22273429  -0.37675258
H    0.76585040   2.15110931   0.44234648
H    1.67556997   3.08182768  -0.33100262
O    0.61241528   0.38520880  -2.25594209
H    1.07117927   0.53680138  -3.08225144
H    0.90562595   1.09524890  -1.68488832
O   -1.75573693   0.34293971  -0.15371474
H   -2.63354848   0.71284132  -0.24779730
H   -1.36610397   0.83105173   0.57165735
Li  -0.56320209  -0.78205067  -1.22675232
