22
Energy:   -577.03901279
O    2.59661006  -2.86389891   2.23260599
H    2.30231368  -3.71791876   2.54926288
H    3.38928910  -2.68103919   2.73704044
O   -0.59118564  -0.42346866  -0.75392997
H   -1.29967497  -0.71694638  -0.18109008
H    0.16175577  -0.95533361  -0.49618834
O    1.74025874  -1.65949669  -0.08981311
H    1.98095820  -2.04818499   0.75114886
H    2.20087686  -2.18992746  -0.73997155
O    1.40118489   1.87680065  -0.11705951
H    2.11996043   1.25385763  -0.22446328
H    1.72037713   2.50159002   0.53408288
O   -1.88077932   2.09639825   0.19428804
H   -2.42466000   2.84819667   0.42928760
H   -2.35891578   1.33924479   0.53242412
O   -0.46956997   1.93518685  -2.83522384
H   -0.49604083   2.76121447  -3.31814156
H   -0.55304591   1.26048086  -3.50904536
O   -2.81857197  -0.48530143   0.95230520
H   -2.79090912  -0.84094562   1.84055282
H   -3.59474909  -0.88357076   0.55839854
Li  -0.36484409   1.50365914  -0.92368118
