22
Energy:   -571.25359904
O    1.68996618  -2.79986526  -1.77409740
H    1.75923226  -3.71698409  -1.50890483
H    1.93340182  -2.79868569  -2.69982389
O   -0.87914172  -1.26643334  -0.33118636
H   -1.16700943  -0.38871023  -0.08025573
H   -1.68524374  -1.72452329  -0.56906232
O   -3.67662201   2.66028179  -0.46136476
H   -3.83978091   3.24741845  -1.19952570
H   -4.49137765   2.67401387   0.04084686
O    1.31965858   0.38681726  -1.76589205
H    2.04539950   0.86241732  -2.17004120
H    0.55716367   0.94823142  -1.90606159
O    2.06299690  -1.17166358   0.95580965
H    2.89944854  -1.49951842   1.28609999
H    1.73420891  -0.60597897   1.65447354
O    1.17557379   0.44502781   2.95810966
H    1.67081977   1.15718142   3.36283243
H    0.59939681   0.12790420   3.65358400
O   -1.39724392   1.32418248   0.24658187
H   -2.18729450   1.76431157  -0.06700755
H   -1.21544975   1.73187902   1.09332047
Li   1.04984787  -1.27133211  -0.70443342
