22
Energy:   -579.17469996
O   -1.58475401  -1.36145755  -0.61614483
H   -2.23192736  -2.04754951  -0.77947369
H   -1.04149339  -1.70762842   0.09185622
O    0.49129955   0.43446904  -2.35081342
H    1.26227905   0.70903103  -1.85438802
H    0.84210496   0.11768037  -3.18316692
O    0.08247257  -2.30449483   1.40384175
H   -0.22562309  -2.49373250   2.29012501
H    0.67538714  -3.02679027   1.19654137
O   -0.98464671   1.68371264   0.07860633
H   -0.24306273   1.32731087   0.56775132
H   -1.21716639   2.48599402   0.54605797
O    1.10759012   0.27010866   1.05199512
H    1.89470927   0.44940771   1.56631714
H    0.87065465  -0.62852424   1.28123812
O   -2.79351601   0.89544118  -2.56929690
H   -2.79633441   1.24124275  -3.46184671
H   -3.70037033   0.98213523  -2.27547512
O    3.33266604   0.68749603   2.60794708
H    3.31959806   1.33147936   3.31600537
H    4.25062895   0.42513597   2.53907657
Li  -1.26335254   0.40928058  -1.38934918
