22
Energy:   -584.44936752
O   -1.29478985   2.16478195  -0.03561133
H   -1.81678039   2.90098776  -0.35460780
H   -1.78454186   1.83123784   0.71613540
O    1.19425359   1.38283302  -0.74981787
H    1.71764905   2.18347656  -0.78529957
H    0.32160198   1.67791317  -0.48974343
O   -1.47264824  -1.29264870   1.58883043
H   -1.90252862  -0.46231941   1.79374009
H   -2.06689942  -1.96110726   1.92980042
O    3.38068367  -0.85868784  -1.45747082
H    4.18997138  -0.67600336  -0.98006990
H    3.67073509  -1.25878702  -2.27724070
O    1.04317074  -1.55416771   0.63011580
H    0.15975381  -1.46833525   0.98849989
H    1.49557043  -2.13367020   1.24309478
O    0.36987758  -1.16585068  -2.44085359
H   -0.09318345  -2.00217087  -2.48958621
H   -0.02276688  -0.63346057  -3.13267940
O   -2.67449668   1.15278046   2.16072417
H   -2.41373792   1.53340172   2.99939226
H   -3.63041250   1.20233974   2.16154016
Li   1.50176902  -0.52925083  -0.96201911
