22
Energy:   -594.14236839
O   -1.33787550  -2.54120248  -1.77006290
H   -1.95592054  -1.87051861  -2.06064045
H   -1.71094786  -3.36425734  -2.08570442
O    0.84756117  -1.58960715  -0.50591671
H    1.56915899  -2.21357515  -0.58460838
H    0.11825107  -2.00707520  -0.96423870
O   -2.88657334  -0.32056941  -2.40219937
H   -3.81729155  -0.35375064  -2.18107847
H   -2.86817551  -0.07159995  -3.32627057
O    0.26126137   0.12716860   2.20704388
H   -0.21569295  -0.33351888   2.89734344
H    0.92042886   0.64156882   2.67300792
O   -1.11064587   0.92419875  -0.64450394
H   -1.44625093   1.81810764  -0.57721367
H   -1.71253374   0.48656861  -1.24653608
O    2.42132890   1.77436627   2.91799544
H    3.19393401   1.41523886   3.35427596
H    2.28359853   2.62471223   3.33533695
O    1.99751176   1.39468415   0.17025564
H    2.31544165   1.65873105   1.03363948
H    2.61950894   1.78450146  -0.44406823
Li   0.46109563   0.16011834   0.24714597
