22
Energy:   -583.18680183
O   -0.26719878   0.12856683   3.09972566
H   -0.31484443  -0.59211749   3.72787838
H   -0.57525497   0.89256840   3.58720371
O   -1.02449650  -1.81110290  -2.07019742
H   -1.66695954  -2.19896843  -2.66436358
H   -0.49667244  -2.55145551  -1.77101249
O    1.39070031  -1.16917913  -0.69981610
H    1.72422080  -0.79224145   0.11437916
H    2.16784049  -1.51054248  -1.14225938
O    1.99378621   0.39959170   1.51540037
H    2.78759534   0.54495341   2.03015166
H    1.29830612   0.31000734   2.16694771
O    0.72812712   1.62823431  -0.62820252
H    1.15573859   2.39982764  -0.99971836
H    1.25253821   1.41099589   0.14253241
O   -1.52648923   1.06698154  -2.36520413
H   -1.93146622   0.96628259  -3.22664780
H   -1.73921684   1.96272420  -2.10324249
O   -1.34680117  -0.26794673   0.55171785
H   -2.23656406  -0.60603162   0.65297228
H   -1.04024503  -0.12699615   1.44747905
Li  -0.34296716  -0.07961505  -1.17308371
