22
Energy:   -588.88125498
O   -1.75446364   1.80935269   2.54984099
H   -1.75956385   1.67429643   3.49745148
H   -2.24994260   2.61797829   2.42000615
O   -0.18911471  -1.85143820  -3.94228085
H   -0.87122062  -2.41202693  -4.31201542
H    0.55636019  -1.95915408  -4.53295530
O    1.09110289  -1.42139158   0.13406732
H    1.37897281  -2.31297081  -0.06201747
H    1.80931791  -1.04346369   0.64158041
O    2.83804641   0.21615841   1.59543726
H    3.11131184   0.01403052   2.49025689
H    3.62357870   0.57066304   1.17890716
O    0.41012944   1.40626030   0.78076675
H   -0.14429175   1.73310997   1.48929924
H    1.25905033   1.24815111   1.19376391
O   -0.56514637   0.16073118  -2.15297622
H   -0.43236138  -0.54270963  -2.78840600
H   -0.75451900   0.93296187  -2.68592051
O   -2.01444818  -0.30938392   0.73219653
H   -2.11629773   0.34652243   1.42186700
H   -2.84282825  -0.78898565   0.73290400
Li  -0.31951498  -0.10638291  -0.24403980
