22
Energy:   -577.23049105
O   -0.78169275   2.94349479   2.14365289
H   -0.72621620   2.99869612   3.09764818
H   -1.00415692   3.83161806   1.86440644
O   -1.77461032  -1.37650455  -1.24791225
H   -2.39633086  -1.25859356  -1.96609914
H   -1.75269694  -2.32231172  -1.10230850
O    2.54250042  -2.96032273  -0.88079284
H    2.45931933  -3.83276962  -1.26569436
H    3.47838913  -2.76520941  -0.92848945
O    0.62432361  -1.56605277   0.46163191
H    1.29648573  -2.04241636  -0.02571567
H    0.62681696  -1.96871352   1.33001544
O    0.93586720   1.41621062   0.54390334
H    1.77820711   1.25086074   0.96740629
H    0.49178782   2.03315648   1.12562763
O    0.11926772   0.76425796  -2.06694859
H    0.19609730   0.70449309  -3.01918660
H    0.72028491   1.46760551  -1.82136273
O   -1.86414172   0.71929986   0.84449269
H   -2.79795206   0.56974791   0.99235853
H   -1.66087118   1.49818475   1.36242247
Li  -0.45379114  -0.08141675  -0.33701179
