22
Energy:   -590.38100210
O    1.39024304  -1.76551156  -3.36457882
H    1.63971679  -1.16414587  -4.06625823
H    1.23188081  -2.59898986  -3.80782500
O   -0.54533374   0.14990841   2.45529628
H   -0.69645200  -0.70368467   2.04937267
H   -0.41315715  -0.04552507   3.38296376
O   -1.89044012   0.66371823  -0.19162552
H   -1.79833389  -0.28680501  -0.12640393
H   -2.66051768   0.79277901  -0.74530025
O   -0.91077143  -1.83684246   0.53922050
H   -0.06813583  -1.81937638   0.08546723
H   -1.18508600  -2.75308861   0.50079722
O    1.16301701   1.27956643   0.09053825
H    1.95962862   1.78370622  -0.07524734
H    1.36345534   0.40102431  -0.23229309
O    1.51277866  -1.34894283  -0.67982969
H    2.30995711  -1.81236665  -0.42297033
H    1.45541686  -1.47675269  -1.62672256
O   -0.97275926   3.30392644   1.58442442
H   -1.34882043   3.55747446   2.42734983
H   -0.90130469   4.12458269   1.09693143
Li  -0.56026474   1.47983780   1.00393679
