22
Energy:   -574.65163374
O    0.68265276  -0.91587812   0.21890057
H    1.60828523  -0.69267260   0.31696012
H    0.45566270  -1.36212897   1.03472379
O    0.09863133  -2.22267679   2.57236465
H    0.18285095  -2.00722224   3.50119092
H   -0.11605066  -3.15542085   2.56087556
O   -2.05541906   0.66982293  -0.81842026
H   -2.37321506   1.15327536  -0.05585138
H   -2.83670207   0.52137421  -1.35114129
O   -0.33373870  -1.06292763  -2.73811543
H   -0.29717528  -0.92730672  -3.68495329
H   -0.12426194  -1.98944207  -2.62012246
O   -2.90863029   1.88702405   1.44802607
H   -3.41695096   2.68164550   1.61056438
H   -2.96094112   1.39666300   2.26841711
O    3.27548416   0.06014337   0.24245436
H    4.04021238  -0.27256229  -0.22736426
H    3.59857325   0.24918351   1.12342492
O    1.01872255   1.65196553  -1.42635955
H    0.84834749   2.58938103  -1.51831809
H    1.93201810   1.60056065  -1.14443645
Li  -0.22218206   0.12448125  -1.17218678
