22
Energy:   -577.05706430
O    1.71027880   0.89068192   1.40176409
H    1.65470049   0.78244440   2.35119947
H    2.60776628   1.18469738   1.24586995
O   -0.71137025   2.24003376  -0.73322122
H   -0.42995129   2.58012540   0.11611552
H   -0.59576238   2.97448933  -1.33608246
O    0.90717998  -2.39411120  -1.97622400
H    0.61325796  -3.30506567  -1.97813316
H    1.81895388  -2.43552275  -2.26464259
O    1.62087581   0.55304536   4.12031150
H    1.87947879  -0.23787995   4.59337967
H    1.41088433   1.18569770   4.80725142
O   -0.02996629  -0.72487121   0.10324517
H    0.63132378  -0.24433811   0.60125644
H    0.46393578  -1.39922142  -0.36317137
O   -0.84505293  -0.35400740  -2.78225104
H   -0.23319869  -1.08747062  -2.71981753
H   -1.07732489  -0.31354316  -3.70996017
O   -3.03134767  -0.01193468  -0.33628216
H   -3.14902504  -0.53274428   0.45816183
H   -3.92045019   0.21701026  -0.60704546
Li  -1.22728753   0.36537213  -0.99384670
