22
Energy:   -589.90960468
O   -1.59521903   1.72328636   1.37399089
H   -2.29263203   2.21299094   1.80992249
H   -0.79277668   2.00725906   1.81180093
O   -1.53615277  -0.16143902  -2.95943449
H   -1.70505931   0.70094236  -3.33890884
H   -2.13202721  -0.74899959  -3.42412585
O    0.62401554  -2.92104402   0.48460360
H   -0.16301752  -3.27641341   0.89754839
H    1.22306038  -3.66557115   0.42931821
O    1.78642112   0.08414167   0.90368456
H    2.72770512   0.04717843   1.07353745
H    1.47834402   0.82857644   1.42053775
O    0.92482439   2.25258919   2.43781445
H    1.26312121   3.12285761   2.22705397
H    1.00595623   2.18753269   3.38934854
O    1.00086392  -0.97431530  -2.11726639
H    0.21116884  -0.70237914  -2.58488188
H    1.66400554  -1.06905508  -2.80100568
O   -1.20674877  -0.45849176  -0.17296957
H   -1.46660137   0.28962159   0.36465008
H   -1.58469064  -0.27825658  -1.03372916
Li   0.63905126  -1.07432360  -0.18546484
