22
Energy:   -577.77148745
O    3.04288328  -2.56798699  -0.86911933
H    3.70372797  -2.06074699  -1.34052544
H    3.24300029  -3.47948870  -1.08207395
O   -2.54161496   1.67385973   0.24330212
H   -2.45750955   2.60761002   0.43635269
H   -3.43700256   1.45511484   0.50149502
O   -2.40101062   4.35372276   0.78981035
H   -2.30739456   4.77444902   1.64447830
H   -2.66715159   5.06082692   0.20209908
O    1.52997168  -2.43760578   1.94984864
H    2.26328484  -2.72733970   2.49256212
H    0.76468857  -2.51433713   2.51966081
O   -0.75837412   0.49535660  -1.39888837
H   -1.39956115   0.90906472  -0.82099856
H   -0.92690913   0.88025299  -2.25893637
O    1.61884738   0.16945195  -0.04817823
H    2.01171687   0.95230616   0.33785894
H    0.85464645   0.49431128  -0.52430343
O   -0.21558992  -2.12342071  -0.73925699
H   -0.59251653  -1.29973455  -1.04860999
H   -0.83029809  -2.79478562  -1.03528888
Li   1.52500124  -1.78503191   0.09959332
