22
Energy:   -589.29825691
O    2.38230845   1.38467559  -0.20329189
H    2.11751920   1.22689033   0.70292128
H    3.20785743   1.86387916  -0.13212541
O   -0.67977790  -0.39776882   0.66547683
H   -1.38296279  -0.80844190   1.16857769
H   -0.08082672  -0.05277385   1.32764585
O   -2.72419714  -1.59126296   2.01910180
H   -2.74595862  -2.48084584   2.37180646
H   -3.50634635  -1.17177272   2.37757411
O    1.45634389  -0.88188430  -1.55663002
H    2.05875419  -0.23845737  -1.18335337
H    2.02523324  -1.55792251  -1.92482710
O    1.30256047   0.74657819   2.28493012
H    1.77449387   0.14280638   2.85848945
H    1.01410708   1.45188021   2.86421895
O   -0.05042133   1.71215820  -1.54523779
H   -0.35718955   2.54364990  -1.90682685
H    0.80836581   1.91421004  -1.17390028
O   -1.78989379  -1.02950527  -2.31458844
H   -2.56204124  -1.47947613  -1.97173805
H   -1.88493371  -1.08058464  -3.26568789
Li  -0.36853052  -0.20857061  -1.24923370
