22
Energy:   -583.72949364
O   -0.97599085   0.37812632   1.29278529
H   -0.27364494   0.93606626   1.62691863
H   -1.60771336   0.33185282   2.01043233
O   -1.75759568  -1.23222302  -2.14082402
H   -1.47339569  -0.49805692  -2.68530759
H   -2.15158008  -1.84965141  -2.75709532
O    1.02791140  -1.34144090  -0.40561158
H    1.56168248  -2.06591690  -0.73188569
H    1.62361029  -0.59234710  -0.39034188
O    1.20137396   1.93153071   2.14143759
H    1.04380455   2.85653958   2.33054687
H    1.67297537   1.60671613   2.90845744
O    2.17316065   1.18002572  -0.35440925
H    3.02186766   1.56687015  -0.56953634
H    1.97254539   1.51281201   0.52036994
O   -0.35651652   1.08811546  -1.49486671
H    0.56093060   1.25109612  -1.27586914
H   -0.73422526   1.96002678  -1.61035955
O   -1.71792329  -2.36957909   0.57492086
H   -2.51432676  -2.84188783   0.33223214
H   -1.29283845  -2.93246926   1.22198296
Li  -0.88282702  -0.76326976  -0.37550082
