22
Energy:   -587.94979105
O   -0.50314620  -0.40391815   1.08038569
H   -1.08266551  -1.02872017   0.64448243
H    0.37695835  -0.75094487   0.93471384
O   -2.52665479  -1.51873877  -0.54411618
H   -2.37516892  -2.12226505  -1.27146747
H   -3.29629449  -1.87048340  -0.09672116
O    2.17547265  -0.69077836   0.39180531
H    2.41299197  -1.28935793  -0.31637469
H    2.86057970  -0.81275361   1.04905885
O    1.09017947   1.77667150  -0.23908326
H    1.63434359   0.99906974  -0.11477412
H    1.66573641   2.40519150  -0.67489132
O   -1.14147955   2.60336971   2.02789524
H   -1.26116365   2.25834158   2.91269078
H   -1.26642262   3.54792919   2.11970191
O    2.89761652  -2.42162757  -1.58483423
H    3.01949372  -3.36603809  -1.48753789
H    3.33615742  -2.20660637  -2.40804721
O   -2.15355410   1.24311118  -0.79483701
H   -2.42993877   0.32839078  -0.85078304
H   -2.72742119   1.70501984  -1.40602340
Li  -0.69642909   1.45965249   0.50153284
