22
Energy:   -577.72157406
O    1.79656216   2.59316430   3.15249896
H    2.72628046   2.69623822   3.35555437
H    1.36353043   2.58876135   4.00613587
O   -1.21820087   0.02383689  -3.16963959
H   -2.09837758   0.39959931  -3.15165573
H   -0.92437496   0.14397384  -4.07267076
O   -0.54015006  -2.60021871  -1.16213029
H   -0.80350898  -2.69484403  -0.24675060
H   -0.45463493  -3.49856294  -1.48134284
O   -0.94389030   0.05147367   0.06402677
H   -0.51814720   0.82966663   0.42373550
H   -1.20340313  -0.45691766   0.83241678
O    0.68322359   2.20583852   0.65322320
H    0.47893792   3.11543069   0.43610273
H    1.10849435   2.25318574   1.50945615
O    1.55096525   0.08698126  -1.66219349
H    2.31169031   0.17892445  -2.23584468
H    1.73745481   0.66440010  -0.92189559
O   -1.45595838  -2.43316138   1.50046025
H   -2.36095012  -2.62276180   1.74799506
H   -0.92826719  -2.85514347   2.17847571
Li  -0.26810679  -0.71121376  -1.59653155
