22
Energy:   -581.83963859
O    0.16863001  -2.61209506  -1.50364663
H    1.05227744  -2.45547298  -1.83661598
H    0.00378487  -3.53712639  -1.68633479
O    0.16454879   2.49786805  -2.65760408
H    0.91360874   2.67679527  -3.22604589
H   -0.43405888   3.22860298  -2.81228818
O   -2.74592257  -1.30161218  -1.31468209
H   -3.05158406  -1.24747185  -2.22014978
H   -3.54716202  -1.31128774  -0.79108532
O   -0.01173109   0.48599907  -0.82380031
H    0.05715382   1.19166570  -1.46685654
H    0.21835860   0.89725015   0.00936421
O    0.27867186   1.03614124   1.89587939
H    1.16813961   0.98082133   2.24519112
H   -0.10897129   1.78769818   2.34435101
O   -0.95398593  -1.36735962   1.33904474
H   -1.06308711  -1.96166313   2.08142747
H   -0.55447371  -0.58340070   1.71591375
O    2.79326576   0.92182134   2.93380147
H    3.57061255   1.37845143   2.61216070
H    3.05644090   0.56964057   3.78405989
Li  -0.91045897  -1.22955722  -0.62102257
