22
Energy:   -578.27282260
O   -1.19789745   0.50487784  -2.08460534
H   -1.78065179   1.23271393  -1.86807853
H   -1.31751687   0.37329159  -3.02514141
O   -0.97518911  -2.38888596   1.92894868
H   -0.82648787  -3.33423995   1.94957938
H   -1.82980353  -2.27126814   2.34371620
O   -2.75220067   2.60918675  -1.32410577
H   -3.19789348   3.23605889  -1.89386106
H   -3.29768591   2.56886473  -0.53857930
O    1.22759447  -0.62944577   2.25215957
H    0.49396028  -1.21930453   2.42559360
H    1.71049043  -0.59777961   3.07801706
O    0.11213090  -1.27663325  -0.49902680
H   -0.43597096  -0.77225637  -1.10020910
H   -0.50781565  -1.68777033   0.10335549
O    3.23381395  -0.62823778  -0.34982987
H    3.38689832  -1.43490133  -0.84185725
H    4.04662873  -0.13160531  -0.44427647
O    0.93342532   1.68265524  -0.04464939
H    1.03449717   2.51396583   0.41896578
H    0.29534497   1.86813797  -0.73362071
Li   1.49653043  -0.16734850   0.35378763
