22
Energy:   -585.10362719
O   -3.56002705   0.90152320   2.54073392
H   -4.45540182   1.20424340   2.38941847
H   -3.61433189   0.38347714   3.34379750
O    2.01916837  -1.58877608   0.08282543
H    2.45100005  -2.01576161   0.82271502
H    2.40709163  -1.99840244  -0.69044918
O    3.15723891  -2.78350916  -2.08160653
H    2.89388500  -3.60623803  -2.49390956
H    4.00337653  -2.57634477  -2.47830024
O   -0.67079394  -0.94807390  -0.07450003
H   -1.30896633  -1.65901878  -0.01512641
H    0.17974015  -1.38406821  -0.02222595
O   -1.24844725   1.79034691  -1.73464541
H   -1.85942897   2.52593968  -1.77749942
H   -1.11934062   1.53212842  -2.64727159
O    1.48712534   1.12047366  -0.10965152
H    2.23394727   1.71260524  -0.19835918
H    1.87817526   0.24938465  -0.04245222
O   -1.29316599   1.89696650   1.42088095
H   -1.00639700   2.58703435   2.01904628
H   -2.09284552   1.55207074   1.81811061
Li  -0.47617356   1.00574449  -0.10781286
