22
Energy:   -579.97719725
O    1.26255733   0.55541281  -1.08178109
H    1.94519531   1.22146031  -1.16313196
H    0.45835745   1.00253284  -1.34555765
O   -1.12907559   1.67075990  -1.68146124
H   -1.22693530   2.60411948  -1.49305947
H   -1.70872931   1.51434953  -2.42696054
O   -1.47434486   4.35811467  -1.28598288
H   -1.08711942   5.07206593  -1.79250227
H   -2.08986072   4.79028234  -0.69386535
O   -0.90527352  -0.93044254   0.74546139
H   -1.67628801  -0.37103648   0.65147543
H   -0.87345605  -1.14042043   1.67880419
O   -0.01098414  -1.74845596   3.30132904
H   -0.31331038  -2.56114436   3.70675259
H    0.12045406  -1.14845459   4.03546404
O    1.93551737  -1.66632278   1.28510161
H    1.42332340  -1.77495150   2.08640616
H    2.81622176  -1.95698848   1.52196670
O    0.61757245  -2.52103074  -1.60626720
H    1.08112648  -2.59601315  -2.44036980
H   -0.03489869  -3.22097609  -1.63055232
Li   0.79900832  -1.12676080  -0.21947022
