22
Energy:   -587.95584761
O   -3.79781861   0.29501367   0.96441879
H   -4.22684052   1.08940932   1.28239300
H   -4.45589112  -0.39196877   1.07037890
O   -0.99818517   0.10072196  -2.97699423
H   -1.92293206   0.33953007  -3.04060026
H   -0.73518771  -0.08299075  -3.87883336
O    0.87892602  -1.78510049  -0.95185677
H    1.14274831  -2.64666968  -1.27485551
H    0.99343038  -1.83911076  -0.00306623
O    0.93342134  -1.14214035   1.75001622
H    1.56381610  -0.42285342   1.78823409
H    1.03423902  -1.59436824   2.58760656
O   -1.17056101   0.05298029   0.27691081
H   -2.08980676   0.14533557   0.52728973
H   -0.75073707  -0.33587901   1.04422310
O    1.38544257   1.28660555  -1.02973235
H    1.86575818   1.28114824  -0.20178370
H    1.71533881   2.05623300  -1.49349297
O    2.63190761   1.05369265   1.45904648
H    3.57506737   0.89037529   1.45605482
H    2.51671446   1.78387190   2.06715885
Li  -0.01591873  -0.06582601  -1.29158789
