22
Energy:   -570.97893582
O    0.38459473   2.08384034   1.57272654
H   -0.49156827   1.93176088   1.21854850
H    0.32089338   2.93005983   2.01554316
O    1.12114087  -2.02440382  -1.41689541
H    1.14542381  -2.97592799  -1.51810777
H    1.55228963  -1.68840019  -2.20267156
O   -1.25716150   0.26726482  -0.06126282
H   -2.06510528  -0.20148251   0.14786545
H   -1.47325430   0.78326715  -0.83797213
O    1.02228954  -0.59053301   1.99853317
H    0.87186116   0.34482043   2.13534360
H    1.74145569  -0.80725244   2.59188348
O    1.60533623   0.73132585  -0.53502327
H    2.47462953   0.99811281  -0.83399773
H    1.34233590   1.41621704   0.07978299
O   -1.91125789   1.77109448  -2.22564360
H   -2.79047887   2.04259557  -2.48925216
H   -1.33372651   2.15422478  -2.88587123
O   -0.77827876  -2.47479906   0.79571702
H   -0.66635085  -2.51972837   1.74528816
H   -1.28024012  -3.25960402   0.57583565
Li   0.40974168  -0.88376042   0.06728736
