22
Energy:   -592.72947068
O   -2.97700125  -1.50771581   1.41921326
H   -3.87830903  -1.20393707   1.31153499
H   -3.00015306  -2.05414896   2.20477463
O   -1.45142230  -2.22271894  -0.81987434
H   -1.73322107  -3.00866479  -1.28796667
H   -2.08219036  -2.12946890  -0.10596403
O    1.56000900  -1.26613937   0.19280200
H    2.24707169  -1.91581887   0.34143998
H    1.81060336  -0.52222530   0.74054846
O    1.66068650   1.21215588   1.41953610
H    2.14396314   1.65389205   2.11778011
H    1.74988263   1.79113210   0.66252723
O    1.69828333   2.61555907  -1.00332214
H    2.54869140   2.86641982  -1.36402540
H    1.18546497   3.42373405  -1.01344051
O    0.40599256   0.42284220  -2.16059883
H    0.32059814   0.53046908  -3.10788765
H    0.85507204   1.21607257  -1.86846008
O   -0.94782751   0.33871316   0.65202146
H   -0.34722833   0.73709282   1.28194695
H   -1.63725747  -0.04989379   1.19044771
Li  -0.11698222  -0.79517871  -0.72090497
