17
Energy:   -402.20511920
O   -1.87487422  -1.69537381  -0.14471658
H   -2.02950122  -0.84293269   0.26230488
H   -0.92172291  -1.77908415  -0.17168000
O    1.19386449  -0.70562693  -2.01779650
H    0.47313979  -0.17158050  -2.35183567
H    1.17423868  -0.56973048  -1.07049568
O   -1.14836202   0.81589150  -2.29976010
H   -0.68763007   1.40532841  -1.70266542
H   -1.61509333   0.20900165  -1.72523557
O    2.18068496  -0.22759992   2.99700061
H    1.96131980  -0.65484583   2.16900804
H    1.63275179   0.55705741   3.01472005
S   -0.11971689   1.04890362   0.86660218
O   -1.57411245   0.73661773   0.95210695
O    0.11531757   2.02179973  -0.23717858
O    0.33796870   1.63997821   2.15549890
O    0.64195862  -0.20278119   0.59598146
