17
Energy:   -403.54714640
O    0.79039064  -1.56566167  -1.70950604
H    0.22169638  -1.49665166  -0.94265774
H    1.50780730  -0.95742382  -1.53176491
O   -0.46757691   0.77610417  -2.51914903
H   -0.17298399  -0.12571888  -2.39201901
H   -0.52250840   1.13758802  -1.63453397
O   -2.57811733  -1.73229040   2.32282851
H   -2.02072130  -1.89711484   1.56231920
H   -2.32265555  -0.86003885   2.62307568
O    2.48194580   1.99380260  -0.01758444
H    2.32553360   1.36253959   0.68475030
H    1.61043977   2.19308222  -0.35963228
S   -0.22041594   0.32940854   1.11992967
O   -0.58073164  -0.97856212   0.50390585
O    1.18068329   0.27198965   1.62363993
O   -0.33731563   1.40827553   0.09891033
O   -1.14429978   0.61593112   2.25326258
