17
Energy:   -401.27774003
O   -2.13631062   1.53178493  -0.29926897
H   -1.60794291   1.76336722   0.46455630
H   -1.54746695   1.01729586  -0.85135228
O   -0.73777448  -2.00927173  -1.08181866
H   -0.24338783  -1.19062706  -1.04138850
H   -0.86217735  -2.25995611  -0.16644272
O   -1.31492798  -2.11886818   1.63898134
H   -0.45385791  -1.71081535   1.72999265
H   -1.89696195  -1.39919666   1.39497066
O    2.74509636   1.51621258  -1.84187415
H    1.88949727   1.09087269  -1.89904082
H    2.92255168   1.57313726  -0.90299128
S    0.90965822   0.62850318   0.83938241
O    0.49505191   0.34297726  -0.56300005
O    2.27863371   1.21671728   0.84258916
O   -0.04644745   1.59223811   1.45352976
O    0.91139469  -0.63791992   1.62441077
