17
Energy:   -403.54777247
O   -2.24207255   1.16780986   0.92355779
H   -1.95637052   1.46468807   0.05957312
H   -1.59806040   0.50576608   1.17491059
O    0.07710602  -3.23086188  -2.18886900
H   -0.13852600  -2.30261205  -2.27879638
H    0.46895951  -3.30298987  -1.31853559
O   -0.72537524   1.95782726  -1.28236363
H   -0.14483184   2.24797146  -0.57878879
H   -0.52994545   1.02654646  -1.38607045
O    1.56748111   1.54127811   2.30891423
H    2.01526001   1.10468411   1.58426840
H    0.74419560   1.06264251   2.40556188
S    0.71844055  -0.90848363   0.15950446
O    0.03557099  -0.60818771  -1.13030619
O    1.99928523  -0.15063006   0.23158002
O   -0.16126737  -0.50595397   1.29272283
O    1.00017336  -2.36916277   0.24402121
