17
Energy:   -404.19952186
O   -2.12341806  -2.86586069   1.67297403
H   -1.28789101  -2.65625666   1.25561023
H   -2.54097317  -2.01618891   1.81417410
O    1.38309908   2.63311433   0.11191341
H    1.12905922   2.18578205   0.91912431
H    0.66490625   2.45748220  -0.49602100
O    2.06009831  -0.56914666  -0.78491270
H    2.05317144   0.35567116  -0.53814182
H    1.31202855  -0.94661702  -0.32216049
O    0.16407297   0.35489030  -2.62970459
H   -0.44613356   0.60741777  -1.93680509
H    0.84901570  -0.13835594  -2.17826972
S   -0.90857088   0.18999310   0.90289511
O   -1.10244290   0.97102447  -0.35109996
O   -0.06873751   0.97409452   1.85155989
O   -2.23369772  -0.08735655   1.52516198
O   -0.22940540  -1.09779006   0.58595853
