17
Energy:   -404.74652765
O   -0.00329813  -0.15756245  -1.82498966
H    0.54140218   0.59389725  -1.59080655
H   -0.74313322  -0.11580677  -1.21907518
O    1.58348219   1.85974139  -0.74775123
H    1.73993192   1.25100152  -0.02581558
H    0.76384189   2.29793929  -0.51883155
O    1.28837450  -1.44993974   0.25447371
H    0.89125346  -1.18374003  -0.57478165
H    0.99351177  -0.79186899   0.88394230
O   -1.29753814  -2.46657182   0.45047038
H   -1.66176272  -1.58203505   0.41630903
H   -0.35118453  -2.33441634   0.50687624
S   -1.03839257   1.19310360   1.13024810
O   -1.73923914   0.19776925   0.27104869
O    0.26499963   0.62941403   1.58138316
O   -0.79717780   2.43974464   0.35063181
O   -1.88215298   1.50548648   2.31792875
