17
Energy:   -404.64996264
O   -2.98869263   1.81674364  -1.94154388
H   -2.50903034   1.19170222  -2.48512383
H   -2.50467363   1.83775753  -1.11600413
O    2.76060766  -0.90713519   0.04430372
H    2.02522446  -1.51872556   0.08172869
H    2.44918672  -0.19094295  -0.50915587
O    0.74464522   0.69851629   1.95558226
H    0.06437395   0.94732208   1.32983587
H    1.45726403   0.36015690   1.41343910
O   -0.32635213  -1.88390602   1.99618905
H   -0.34188285  -1.82540222   1.04090482
H   -0.04284983  -1.01652549   2.28516882
S   -0.20116649   0.14461843  -1.17701848
O    1.16097150   0.70695123  -1.39715914
O   -0.94206716   1.00203789  -0.20954854
O   -0.93770283   0.10589758  -2.47166706
O   -0.08586749  -1.23641297  -0.62969918
