17
Energy:   -401.53827924
O    2.59362121   1.79147059  -1.97882494
H    2.51512348   1.13257594  -1.28894973
H    1.70181023   1.90073277  -2.30892613
O   -2.06638153   0.50069417   2.03619053
H   -1.99813937   0.42264698   1.08462157
H   -1.15922705   0.52878655   2.34035073
O   -1.80726598  -2.29348382   2.11356440
H   -0.99135472  -2.32858799   1.61427654
H   -2.00774838  -1.35990339   2.18039427
O    0.23552549   0.54185460  -2.84181491
H    1.10434346   0.18670096  -2.65405689
H   -0.24101284   0.45960993  -2.01575264
S    0.60711133  -0.40118039   0.47044229
O    0.66338040   0.28021039   1.79431555
O    0.45594840  -1.86950288   0.67361421
O   -0.55573396   0.11524529  -0.30492560
O    1.86485047  -0.13067436  -0.28123500
