17
Energy:   -400.09932054
O   -1.27981804  -0.28493410  -1.94128647
H   -1.30775784  -0.15898204  -0.99282072
H   -0.35291632  -0.42023108  -2.13821227
O   -3.37571011  -1.06603993  -0.12268170
H   -2.64104220  -0.78003490   0.42017743
H   -3.03439717  -1.04886777  -1.01679715
O    1.49930672  -0.53216385  -2.02737194
H    1.42286870  -1.20824355  -1.35409242
H    1.48732763   0.29260080  -1.54172637
O    2.21068249   2.24096196   2.52523741
H    2.03383297   2.16011298   1.58799703
H    1.78180244   1.48010840   2.91689491
S    0.46748047  -0.19620210   1.02420572
O    1.11085751   0.94475848   0.31401212
O    1.02713235  -1.47883759   0.51260435
O    0.73468626  -0.08566196   2.48587667
O   -1.00275426  -0.16506732   0.78432975
