17
Energy:   -401.31254760
O    1.81442824   1.71487953   2.64186486
H    2.38464999   1.46815225   1.91371332
H    1.04758415   1.14969567   2.54832781
O   -2.52925895  -1.96358586  -1.78063704
H   -2.51312322  -1.56484552  -0.91059243
H   -1.61685123  -1.94630429  -2.06950611
O    0.22042214  -1.67751593  -2.26541363
H    0.09947570  -0.74626352  -2.08001473
H    0.34403176  -2.07933722  -1.40547633
O    1.02458895   2.78362079   0.20095127
H    1.07936001   2.60888374   1.14047186
H    0.59067291   2.01141256  -0.16187537
S   -0.50433227  -0.50241306   0.65091404
O   -0.13307909   0.44205655  -0.44007095
O   -1.96794755  -0.77581183   0.59449225
O    0.24618580  -1.77821322   0.48016107
O   -0.16248823   0.10231627   1.96907378
