17
Energy:   -399.98124529
O   -2.86155249  -0.72213540   1.67661731
H   -1.93507495  -0.49484680   1.75542789
H   -2.94304174  -1.09648984   0.79943426
O    0.48385723  -0.88808959  -2.40776473
H    1.04465127  -1.30491021  -1.75354576
H    0.35785337   0.00342690  -2.08287516
O   -1.57610741  -1.70484908  -0.70941824
H   -0.97002423  -1.49570548  -1.42016009
H   -1.16091287  -1.34412975   0.07398901
O    2.11697175   3.26215925   0.58205716
H    1.55178328   2.84285604  -0.06677153
H    2.28839739   2.57784135   1.22901475
S    1.03917475   0.08883487   0.63006094
O    0.71108801   1.07738238  -0.43541215
O   -0.21884632  -0.38338167   1.27387343
O    1.75474832  -1.07116760   0.02802376
O    1.90970901   0.73250635   1.65375872
