17
Energy:   -403.03384956
O   -0.58955170   1.25453255  -1.54711129
H   -0.80474213   0.34024289  -1.73150038
H   -0.75544993   1.35580821  -0.60985313
O    1.54806010  -0.79835408  -0.68474112
H    1.30884281   0.10529781  -0.89070279
H    1.16088832  -0.95891731   0.17581063
O   -0.88120495  -1.50751638  -1.77889672
H    0.02333977  -1.44050962  -1.47305232
H   -1.40921108  -1.43867414  -0.98347098
O    1.67882674   1.65861260   1.27593410
H    0.72422438   1.72553095   1.25384043
H    1.85052052   0.73400615   1.45441663
S   -1.08593669  -0.30719579   1.58659494
O    0.26394372  -0.93624960   1.63364997
O   -1.94643914  -1.04940577   0.62287305
O   -1.70328260  -0.35415067   2.94187324
O   -0.95796876   1.11102289   1.14798350
