17
Energy:   -412.69444956
O   -2.56956492   1.96290706  -0.84881915
H   -1.81153805   2.33307728  -0.39649060
H   -2.36180980   1.03340174  -0.94415812
O    0.40998420  -2.34778710   2.53247042
H    0.54419496  -2.59874514   1.61855611
H    0.08494830  -1.44850571   2.48915185
O   -0.18817973   2.64252658   0.46938880
H   -0.39091381   1.93151955   1.07733596
H    0.26647051   2.21526716  -0.25654123
O    2.57535893  -1.41313991  -1.86122473
H    2.19337143  -0.53844076  -1.78898349
H    2.00048696  -1.97016160  -1.33636199
S   -0.19787401  -0.51055442  -0.20612681
O   -1.53109368  -0.54507866  -0.87053134
O   -0.35478845  -0.03731550   1.19798244
O    0.39261841  -1.87855249  -0.20611729
O    0.70176770   0.41872898  -0.94584107
