17
Energy:   -404.07287861
O   -2.16172050   0.25930478  -0.46549696
H   -1.45563457   0.66617080   0.03663304
H   -1.91437399  -0.66359645  -0.52298507
O   -0.68316354  -2.79952278  -0.63884545
H   -0.40457422  -2.53914009   0.23911850
H   -0.14697298  -2.26885306  -1.22801535
O   -0.45661290   0.25865772  -2.64701964
H    0.29590113   0.03498529  -2.09936544
H   -1.14351938   0.49803134  -2.02485278
O    1.48590239   2.66093406   2.51645316
H    0.72002898   2.40444086   2.00275967
H    2.13777189   1.98554208   2.32898669
S    1.06448101  -0.15885025   0.71673111
O    2.35231499   0.26395579   1.33545457
O    0.53997897  -1.35671857   1.43095032
O    0.07652436   0.95190946   0.81799589
O    1.28910573  -0.49454766  -0.71747633
