25
Energy:  -1298.75369642
O   -1.88113497  -1.82180217   0.20164844
H   -2.18395725  -2.23883657  -0.60495730
H   -2.46888735  -2.15532887   0.87954144
O    0.99846522   1.13253945   0.38879008
H    1.81857809   1.16170785  -0.10395318
H    0.76054512   2.05128980   0.51338417
O    0.30509325  -0.37950207  -1.71199970
H    0.98160918  -0.99367216  -1.99722444
H    0.21509406   0.23402807  -2.44118606
O   -1.91188338   1.27169022   0.19654167
H   -2.84582661   1.34858600   0.00142905
H   -1.61971402   2.17328430   0.33069465
O   -0.13130427   3.55806645   0.71638564
H   -0.00761237   4.02981612   1.54002659
H   -0.00012736   4.22073632   0.03823145
O    0.85492063  -1.71634413   0.56047270
H    0.96898187  -2.35721828  -0.14131231
H    1.67186864  -1.75692998   1.05764530
O   -0.74939395  -0.36163273   2.46180428
H   -1.10174496   0.32086582   3.03301033
H   -0.44443004  -1.04259528   3.06140321
O    2.20605963  -1.95690339  -2.55599250
H    3.15865032  -2.02119037  -2.48765501
H    2.00453752  -2.29658241  -3.42790927
Ca  -0.48454542  -0.28709275   0.39535437
