25
Energy:  -1301.08778014
O    0.57106054   1.24588675  -2.32869700
H    1.46704092   1.54341872  -2.17081815
H    0.31428026   1.67903565  -3.14274722
O   -1.62400524   1.23016466   2.71698336
H   -1.15770381   1.57449529   3.47871248
H   -2.51083998   1.06075585   3.03487746
O   -1.94266860  -0.44591043  -1.25517012
H   -2.81892976  -0.10741103  -1.07127780
H   -2.09449944  -1.23513816  -1.77507283
O    0.50880077  -3.25758650   0.70123456
H   -0.23810117  -3.84219883   0.83006690
H    1.27144468  -3.78829156   0.93136114
O    2.51028398   1.43781583  -0.30898242
H    2.91557010   2.29820533  -0.41717171
H    3.20123630   0.89267669   0.06736856
O   -0.87746469   1.95640299   0.15011979
H   -1.09223806   2.82345445  -0.19386572
H   -1.20687291   1.96640048   1.04879778
O    0.05204150  -0.50321419   1.25750568
H   -0.42908202  -0.11791927   1.98983063
H    0.21837488  -1.40615842   1.52816554
O    0.83575734  -1.44463133  -1.33097857
H    0.83263747  -2.26036021  -0.83017071
H    1.34187805  -1.64789121  -2.11759098
Ca  -0.07496880   0.25769484  -0.64878358
