25
Energy:  -1305.56582087
O   -1.00041334  -2.37840158  -0.88535434
H   -1.73746863  -2.85346078  -0.50155738
H   -0.85029688  -2.80806158  -1.72742866
O   -1.87622695   1.51619109  -2.76343176
H   -2.74449976   1.21205919  -3.02770049
H   -1.77433583   2.36118986  -3.20141249
O   -0.33923519  -0.31155033   2.04716963
H   -0.95803263  -0.62718212   2.70572727
H    0.27214079   0.23882258   2.53659880
O    1.66357358   1.33461636   3.12475620
H    1.62619047   2.22633168   3.47070151
H    2.16732725   0.84568254   3.77545415
O    0.29229627  -0.17154671  -2.04596745
H   -0.35193809   0.36339444  -2.50968276
H    0.82191954  -0.56452481  -2.73972480
O   -1.61177512   0.96360178  -0.18603565
H   -2.20190114   1.43447426   0.40240487
H   -1.85420649   1.26576932  -1.06133769
O    1.60068370   0.89284777   0.36544061
H    2.28014810   1.23577765  -0.21504115
H    1.86724482   1.17558338   1.24021921
O    1.39365668  -1.96870062   0.36707432
H    1.11380697  -2.77166539  -0.07242946
H    2.13162838  -2.23891708   0.91352897
Ca   0.00314538  -0.34426578  -0.02807245
