25
Energy:  -1303.84990007
O   -0.42155447   0.82391155   2.57887377
H   -1.24865868   1.11583115   2.96216663
H    0.17061510   0.73439159   3.32556864
O    3.16567627  -3.06084564  -0.61768363
H    3.78292247  -3.58994453  -0.11241802
H    3.37775936  -3.25178108  -1.53135549
O   -0.41817506   2.37870479  -2.72353219
H   -0.95350206   3.10753650  -3.03731746
H    0.31356165   2.33594602  -3.33913346
O   -2.46812173   0.80109085   0.62820105
H   -2.86301046   1.67141548   0.68139680
H   -3.21081736   0.20666255   0.52194641
O   -1.04650647  -1.75372874   1.21686913
H   -1.04476813  -2.10424606   2.10758033
H   -1.50072829  -2.41794021   0.69847014
O   -0.68628480  -0.54507768  -1.34550215
H   -0.78533031  -0.00601367  -2.13025168
H   -0.33013730  -1.37344299  -1.66675241
O    1.51211514  -0.54929780   0.77056148
H    1.87066811  -1.43658928   0.75092900
H    2.28099012   0.01940157   0.81110957
O    0.24011211   1.92928519  -0.21065480
H    0.74823235   2.68368826   0.08754258
H   -0.00947053   2.14779998  -1.10853656
Ca  -0.46086512   0.13548948   0.58619362
