25
Energy:  -1297.37971833
O   -0.28841813  -2.87663597   0.47550290
H   -1.09059533  -3.23592694   0.85451951
H    0.24902412  -3.64405884   0.27941666
O    0.61980538   1.04376096  -0.61852636
H    0.54344503   1.72566691   0.04886050
H    1.30977133   1.35670936  -1.20354100
O   -2.64186398   2.77253683  -1.12274642
H   -3.23177315   3.36852477  -0.66118667
H   -2.71517714   3.02691745  -2.04260920
O    1.38244327  -0.59281622   1.64766046
H    1.66925325   0.29720130   1.85221043
H    1.70032578  -1.12155754   2.37951781
O    1.76714841   2.26657696   1.57722919
H    1.29530169   2.83397560   2.18686130
H    2.55265152   2.76263282   1.34669654
O    1.78839209  -1.59211249  -1.17484728
H    1.73658962  -1.64632175  -2.12910600
H    2.66134289  -1.92256355  -0.96273683
O   -1.52954612  -0.21203963   0.96871197
H   -1.94247904  -0.53340261   1.77023807
H   -2.19732104   0.33746700   0.55840603
O   -1.01278762  -1.16041147  -1.71466973
H   -1.71672957  -1.78370544  -1.89411947
H   -1.09720489  -0.49884187  -2.40127824
Ca   0.16005567  -0.87965888  -0.04668428
