25
Energy:  -1303.61843970
O    0.07983970   0.74746735   2.14149687
H   -0.01199865   1.48599673   2.74347022
H    0.77167778   0.20911995   2.52591071
O    0.44470068  -1.02070685  -0.07872989
H    0.47355897  -1.97077774  -0.19170932
H    1.31471995  -0.72113044  -0.34245756
O   -2.53516789   1.72121829   1.00777141
H   -2.63776956   2.66452305   0.88175209
H   -3.19155681   1.49430046   1.66647752
O    0.12551717   1.81706024  -0.58006950
H    0.03007894   2.74246861  -0.80533100
H    0.85319202   1.51196916  -1.12195566
O   -2.20510566  -1.10943873   1.25149313
H   -2.82148509  -1.62837946   0.73476423
H   -2.29654737  -1.44583062   2.14295864
O    2.50583476   0.48689703  -1.27019758
H    3.26847946   0.97426653  -0.95862757
H    2.87273600  -0.21456202  -1.80831516
O   -2.03749049   0.15252323  -1.39438680
H   -1.81013909  -0.54279445  -2.01170074
H   -2.69181174   0.67785281  -1.85495641
O    3.25410751  -2.56978577  -0.99760600
H    3.80300064  -2.77212749  -1.75523783
H    3.55777692  -3.16781127  -0.31468416
Ca  -1.03249913   0.40009389   0.39064203
