25
Energy:  -1313.68004169
O   -2.22071320  -1.71987101   2.10847579
H   -3.14498585  -1.47685222   2.16226976
H   -2.16861823  -2.56557190   2.55379363
O   -0.43769601   0.35810200   2.19177665
H   -1.07972054  -0.33161314   2.36008998
H   -0.51248365   0.94449704   2.94462426
O    1.37516173   0.37289415  -1.61554220
H    0.91756863  -0.14669192  -2.27650417
H    2.05693481   0.83500427  -2.10326297
O   -0.79413086   2.01588866  -0.91934885
H   -1.55055585   2.60217053  -0.90127546
H   -0.55144339   1.96568939  -1.84391073
O    1.34876007   2.36280599   0.83147813
H    1.99232084   2.75650083   1.42060100
H    0.95916495   3.10580931   0.37061638
O   -0.76406007  -1.13716519  -0.20167006
H   -0.90162220  -1.48798224  -1.08157682
H   -1.41969645  -1.57888528   0.33801147
O   -0.32778469  -1.38969535  -2.91230944
H    0.07227327  -2.22292143  -3.16114630
H   -1.01985492  -1.25306519  -3.55930468
O    2.18319076  -0.63913833   0.84972993
H    2.40615800  -0.98127164   1.71544481
H    2.92425734  -0.88540661   0.29619213
Ca   0.51832598   0.42249618   0.28328131
