25
Energy:  -1302.39344139
O   -2.46039161  -0.04805971  -1.19733758
H   -3.22148478  -0.61902246  -1.09259709
H   -2.74245406   0.61459271  -1.82786466
O    0.25317232   0.85698604  -1.80159514
H    1.16650095   1.13040967  -1.71614233
H    0.14303718   0.67649201  -2.73514964
O    0.69632389   0.85453769   3.33182780
H    0.94717146   1.62326853   3.84403892
H    0.51573644   0.17906155   3.98554946
O    1.17219847   0.12970888   0.73659511
H    1.92472061   0.54181799   0.31220335
H    1.23679632   0.39816303   1.65310553
O    2.82010131   1.24230218  -1.11233565
H    3.16272046   2.13551836  -1.08057375
H    3.49795214   0.74124150  -1.56586437
O   -0.37167853  -1.90968502  -2.05129977
H    0.45666246  -2.32210506  -2.29623396
H   -1.01319970  -2.28176807  -2.65647464
O   -0.97888792  -1.99300556   0.69195795
H   -1.08548168  -2.27173799   1.60145113
H   -0.91062448  -2.80953909   0.19713986
O   -1.39859938   0.89765814   1.35688267
H   -0.89873858   1.03146052   2.16215774
H   -2.22391619   1.35857910   1.50733492
Ca  -0.61073158  -0.19570841  -0.25046013
