25
Energy:  -1305.75071194
O   -2.93663088  -0.21769024   0.28715818
H   -3.54372122  -0.81348803   0.72613217
H   -3.50039864   0.42372072  -0.14526491
O    1.53889070  -1.08019075  -2.69274483
H    1.69380225  -1.94216592  -3.07905180
H    2.12619756  -0.49419065  -3.17014025
O   -1.05291389  -0.28713608  -2.01995332
H   -0.32447621  -0.65935280  -2.51700977
H   -1.76190458  -0.20563843  -2.65785785
O    1.17923671   0.05833935  -0.22168525
H    1.94120076   0.44691879   0.20802237
H    1.53921993  -0.39710393  -0.98274723
O   -1.08367077   1.95062616   0.08290760
H   -1.06565900   2.49060751   0.87305161
H   -1.11671992   2.58022564  -0.63733131
O   -0.77236111  -2.21749857   0.09759768
H   -0.44283470  -2.72806714   0.83716778
H   -1.03304935  -2.87300099  -0.54938768
O   -0.57486311  -0.15317886   2.10005688
H    0.20840322   0.03342777   2.61765100
H   -1.24769786  -0.35957765   2.74884405
O    3.42823632   1.97922941   2.49025539
H    3.97200980   1.70726232   3.22956328
H    3.72677966   2.86543925   2.28596189
Ca  -0.84309125  -0.14129942   0.02404393
