25
Energy:  -1304.86387283
O   -1.91728867  -1.07415552   1.08889138
H   -2.27959482  -1.71218205   1.70361753
H   -2.64948785  -0.85271435   0.51349584
O   -2.52670362   2.06910498  -2.02577913
H   -2.17393155   2.64679245  -2.70258110
H   -3.47508783   2.10453424  -2.15045469
O    0.92309002  -2.21966493   1.52166174
H    0.57805070  -3.11234737   1.50440558
H    1.87384113  -2.33003164   1.53276852
O    1.96603228   0.35283756  -2.39371763
H    2.42620163  -0.17683165  -3.04481405
H    2.08353326   1.25486563  -2.69166181
O    1.99243797   0.22438350   0.44601378
H    2.28712495   0.24930052  -0.46435459
H    2.69477148   0.65046319   0.93735438
O   -0.72127850   1.55806267   0.21238911
H   -0.32655746   2.42238170   0.09671816
H   -1.58132512   1.62964569  -0.20164898
O   -0.05884536  -1.10979876  -1.16540400
H   -0.54477882  -1.76159643  -1.67063693
H    0.39166871  -0.58210796  -1.82480626
O    0.30039662   0.07891810   2.85859094
H   -0.17434479   0.56580489   3.53223305
H    0.90848524  -0.47587980   3.34711868
Ca   0.03001859  -0.37685383   0.83955950
