25
Energy:  -1305.48051160
O    1.69285872  -1.01424245   0.86805466
H    2.13960597  -1.06380811   1.71315346
H    2.37797953  -0.76246178   0.24882302
O   -0.49832401  -2.93923511   0.40034474
H   -1.20302278  -3.52678904   0.12755935
H    0.13881903  -3.51115278   0.82835265
O    1.34967160  -0.51878830  -1.80390115
H    2.02487583  -0.99813738  -2.28406317
H    1.42154274   0.38092712  -2.12261505
O   -1.28016967   2.06672397   2.35605241
H   -2.15350151   2.45853863   2.35390082
H   -0.77845058   2.60211511   2.97076057
O   -0.24093345   1.14984175  -0.04678853
H   -0.57768340   1.70906972   0.65327962
H    0.13898253   1.75963173  -0.67928507
O    1.01656488   2.41453490  -2.13424132
H    1.75587520   3.01099817  -2.01641235
H    0.49895950   2.80957286  -2.83585483
O   -1.40606083  -1.10325100  -1.58486483
H   -0.91257071  -1.02781189  -2.40157058
H   -2.32024572  -1.16530517  -1.86171701
O   -0.85509435  -0.63654773   2.01459184
H   -1.04018513   0.23292583   2.36954111
H   -0.95627134  -1.22704625   2.76112152
Ca  -0.23945041  -0.88330205   0.07666483
