25
Energy:  -1317.21677708
O   -0.98294364   1.12552017  -1.06154887
H   -1.38729904   0.79425777  -1.86341780
H   -0.68339344   2.00555311  -1.28967944
O    1.33671250  -0.36722902  -0.26702820
H    1.78537466   0.27833453  -0.81308847
H    1.40384355  -1.18569481  -0.75879950
O   -2.29935350   0.69481796   1.51076219
H   -2.40652151   0.93898756   2.43007066
H   -3.14899668   0.88265805   1.11194592
O    0.58498772  -2.70503949  -1.75084306
H    0.40959436  -2.59468809  -2.68534377
H    1.08220728  -3.52103776  -1.69470592
O   -0.00609492  -0.82250746   2.49410074
H    0.77053484  -0.66435663   3.03081890
H   -0.43279418  -1.57434682   2.90507176
O   -1.28405993  -1.61357432  -0.01267965
H   -0.83313574  -2.14306531  -0.67035624
H   -1.98281809  -2.18042951   0.31388438
O    0.48657771   1.84737104   1.48139729
H    0.57493036   2.72104873   1.10046034
H    0.71321294   1.96381803   2.40406105
O    2.03148914   1.82842544  -1.99039729
H    2.58750667   1.40301499  -2.64316241
H    2.17997269   2.76480109  -2.12224988
Ca  -0.48175097   0.14667687   0.69964702
