25
Energy:  -1302.97823319
O   -0.47435624   1.03977514   0.40444818
H   -1.12321099   1.66643734   0.08427034
H   -0.43987980   1.19145937   1.34892429
O   -2.07940197   2.39667576  -1.45523953
H   -3.00535266   2.32890471  -1.68816496
H   -1.86563203   3.32027148  -1.58754681
O   -0.19046393   0.94473581   3.09675957
H    0.46503710   1.41456814   3.61232510
H   -0.97777045   0.95699016   3.64102983
O   -0.41739420   0.25419302  -2.32677116
H   -0.36009261  -0.00381785  -3.24675962
H   -0.94696500   1.05152543  -2.33367334
O    1.51541636  -1.77875195  -1.81544745
H    1.28995003  -2.66528924  -2.09731341
H    2.38166417  -1.62062298  -2.19073643
O    0.60708774  -1.37233085   1.88408554
H    0.37020110  -0.66973375   2.48945640
H    0.86320572  -2.10056850   2.45004080
O   -0.99385865  -1.89925349  -0.34867437
H   -0.99345002  -2.34275681   0.49958060
H   -1.77408234  -2.23134860  -0.79274157
O    2.21733579   0.20083006   0.17470656
H    3.02321031   0.65896555  -0.06385154
H    2.41866475  -0.21932584   1.01086894
Ca   0.43931928  -0.45640034  -0.60768695
