25
Energy:  -1300.00771015
O    1.96780273  -1.13346329  -1.26328305
H    2.53001175  -0.72177435  -1.91953383
H    2.12304222  -2.07204991  -1.36905500
O   -0.98048202   3.00733418   2.19129912
H   -1.38715379   3.77561569   1.79055801
H   -0.84987935   3.25492196   3.10665429
O    1.00027492   1.74668265   0.78223101
H    0.45769800   2.37109660   1.26384220
H    1.86113759   2.16260962   0.73584058
O   -0.22506167   0.69235282  -1.56934223
H   -0.14721946   0.10131971  -2.31824296
H   -0.24716853   1.56779185  -1.95580005
O   -1.26743359   0.17417035   1.56109898
H   -1.54337345   1.01882378   1.91697763
H   -1.76775182  -0.47149788   2.06012409
O    1.74413435  -0.91185615   1.53612142
H    1.96378738  -0.99380456   2.46416713
H    2.44585163  -1.37771989   1.08137348
O   -1.68673426  -1.75967635  -2.72861423
H   -2.25033430  -1.07784514  -3.09425485
H   -1.91151272  -2.54768666  -3.22333257
O   -0.58120970  -1.90115977  -0.26312128
H   -1.04045428  -1.90988767  -1.10291297
H   -0.49762163  -2.82467132  -0.02569490
Ca   0.34441253  -0.13860443   0.23502816
