25
Energy:  -1304.88118497
O   -1.31951448  -1.57308680   0.18165545
H   -1.47756898  -1.74258390  -0.74706483
H   -1.82561065  -2.24539683   0.63783277
O    1.99660872   2.19727114  -1.50724862
H    2.67108857   1.91909735  -2.12686796
H    1.80195228   3.10132845  -1.75427309
O   -1.98448583   1.15413671   1.12972486
H   -2.46385085   1.56605471   1.84858826
H   -2.55971163   1.25140407   0.37085320
O    1.15373691   1.52310891   1.13232847
H    1.47815704   2.04347058   1.86731633
H    1.51059915   1.95522051   0.35633829
O    0.18386714   0.27478434  -1.25224897
H    0.58969991   1.03647670  -1.66620110
H   -0.27709326  -0.16832185  -1.96457212
O    1.71599393  -1.48838682   0.66203259
H    1.69195582  -2.32410934   0.19596191
H    2.58143539  -1.46613872   1.07038041
O   -0.18160198  -0.68124256   2.79109490
H    0.16391133  -1.06353663   3.59775694
H   -0.98850267  -0.24213810   3.06003801
O   -1.41483031  -1.49460141  -2.59507250
H   -2.29250192  -1.35835353  -2.95194911
H   -0.93725851  -1.93899934  -3.29554913
Ca   0.11476284  -0.21138407   0.74791085
