25
Energy:  -1303.54708321
O    1.66905743   0.50831908  -1.48675744
H    2.53194887   0.84855931  -1.72316129
H    1.32199728   0.14673029  -2.30225400
O   -1.17897885   0.52545099  -1.12043476
H   -2.12767097   0.65238065  -1.13063175
H   -1.00685901  -0.05730246  -1.86003264
O    0.45739142  -1.40021525   0.40006021
H    1.17958099  -2.02025835   0.29896310
H   -0.29086073  -1.94208718   0.65051056
O    0.48227901   2.73293572  -0.05381392
H   -0.03862016   3.20563971  -0.70300329
H    1.02253455   3.40747692   0.35770762
O    2.04947070   0.79450157   1.49909161
H    2.95996842   0.55782833   1.32242377
H    2.05233943   1.09866232   2.40667624
O   -0.93528974   0.74727101   1.75596720
H   -1.35443712   1.49883945   2.17512373
H   -1.34607926  -0.01499674   2.16392762
O   -2.25896939  -3.25504694   2.77475133
H   -3.18043512  -3.46012161   2.61639371
H   -1.98359059  -3.88588805   3.43991136
O   -0.14967321  -0.41472309  -3.53569902
H   -0.16719519   0.24429402  -4.22968842
H   -0.16427244  -1.25198483  -3.99939233
Ca   0.43145163   0.68075897   0.17601305
