25
Energy:  -1297.14910271
O    0.92761134   1.68635310   1.35503583
H    1.86234500   1.88724700   1.40136569
H    0.59474226   1.89011723   2.22905540
O   -0.95488388  -0.85329359  -1.35281814
H   -0.63743263  -1.02661229  -2.23905579
H   -1.65804068  -1.48926201  -1.22111196
O    1.62467895  -0.91814691   0.16090295
H    2.27056633  -0.90107585   0.86713940
H    1.84292287  -1.70084954  -0.34503977
O   -0.99122906  -0.40678280   1.53663395
H   -0.61047927  -0.90690771   2.25853181
H   -1.93393296  -0.42747960   1.70129377
O    1.18574602   1.39873769  -1.51712476
H    1.99057328   1.19311308  -1.99273326
H    1.10332970   2.34997481  -1.58485462
O   -3.66988169  -2.04392500  -2.48354399
H   -3.90421616  -2.75551259  -3.07933112
H   -4.50675808  -1.73907081  -2.13292499
O    3.27443445  -0.57546966   2.40840530
H    3.18037020  -0.88642976   3.30878721
H    4.22015435  -0.52412063   2.26980876
O   -1.44755159   1.84197734  -0.40370894
H   -1.45849358   2.76499022  -0.15041200
H   -2.31615555   1.68434540  -0.77372405
Ca   0.04452341   0.43698638  -0.06635373
