25
Energy:  -1298.56466425
O   -1.41031785  -1.03578510   1.86928280
H   -1.66734510  -1.67699101   1.20669407
H   -1.60712111  -1.46110263   2.70391165
O   -0.03774916   1.73620334   2.66735253
H    0.61029164   2.43763471   2.73269022
H   -0.36948738   1.63212255   3.55917582
O    0.46646811   1.66491618  -0.67151940
H    0.95536165   1.06289305  -1.23257474
H    0.01209011   2.24599791  -1.28153294
O   -1.06243503  -0.81417662  -0.83027941
H   -1.90627015  -0.83930178  -1.28143665
H   -0.50428765  -1.40832450  -1.33196821
O    0.61860928  -2.19059700  -2.73517789
H    0.88902186  -3.10743691  -2.68504335
H    0.59936957  -1.99696852  -3.67239168
O    1.40260180  -0.30077380   1.25057769
H    1.93068989  -0.59143551   1.99413038
H    1.97654232  -0.40803392   0.49207957
O   -2.17670832   1.69329106   0.49997662
H   -2.97032330   1.39752885   0.05395888
H   -2.41169585   2.54492098   0.86840463
O    2.16954902  -0.27239874  -1.47907538
H    3.07557918  -0.17078809  -1.77065122
H    1.80965996  -0.95372558  -2.04697101
Ca  -0.42381828   0.62023819   0.91201002
