25
Energy:  -1301.12071293
O   -3.43627002  -0.48068655  -0.96746243
H   -3.98983658  -1.23113803  -0.75154926
H   -4.05062020   0.19845907  -1.24597083
O    1.29201019   1.83321082   0.81869911
H    1.92032241   1.84337039   1.54074647
H    1.13420749   2.75720241   0.62487006
O    0.37039731   0.92120567  -1.73841043
H    0.75350430   1.63770394  -2.24446490
H   -0.20235000   0.46922415  -2.35801117
O   -1.31718177  -1.00048271  -2.73095812
H   -2.20455307  -0.91745934  -2.38180036
H   -1.44013374  -1.31541658  -3.62646430
O    2.96200227   1.12710295   2.89494291
H    3.91586160   1.14038949   2.81615408
H    2.79067710   1.42840072   3.78718681
O   -1.37391367   0.18992430   0.71803946
H   -1.74793791   0.46366637   1.55553752
H   -2.13228548  -0.02950792   0.17678762
O    0.48467082  -1.76586929  -0.80911714
H    0.93415786  -2.61029366  -0.77534227
H   -0.10425747  -1.83736316  -1.56030550
O    1.40532997  -0.83331185   1.74091147
H    2.01346104  -0.34828848   2.29872935
H    1.32314836  -1.68873681   2.16248729
Ca   0.55073930   0.06041372   0.10695922
