25
Energy:  -1358.05118973
O    1.62383239  -0.29384429  -1.42362004
H    2.28149640  -0.64050989  -0.82068317
H    2.06105071  -0.28260730  -2.27505748
O    0.42084603   2.15945200  -0.34520452
H   -0.05238568   2.87253638   0.08350781
H    1.29417664   2.51538114  -0.50903355
O   -2.06010140   0.68325327   0.19752148
H   -2.90282139   1.03396626  -0.09067163
H   -2.16870802   0.53983653   1.13766406
O   -1.78239268   0.06906465   2.87598972
H   -1.76798562   0.74928683   3.54928169
H   -2.26021776  -0.65641480   3.27797805
O   -0.90544071   0.80819103  -2.54466847
H   -0.84748174   1.67899281  -2.93783112
H   -1.33972337   0.27329462  -3.20913537
O    3.06936242  -1.21780142   0.74093294
H    3.32302323  -2.13729812   0.82101952
H    3.81525582  -0.73159841   1.09233230
O    0.42237051  -0.37700758   1.18703852
H   -0.06274244  -0.36637913   2.01213507
H    1.28380942  -0.72353764   1.41957190
O   -0.93178996  -1.70338963  -1.09075858
H   -1.78548285  -2.07684687  -0.87173806
H   -0.43893269  -2.43399270  -1.46431273
Ca  -0.23773911   0.21220295  -0.66814611
