25
Energy:  -1312.92815578
O   -1.35409576   0.54043618  -1.38990278
H   -1.91339787   1.31037165  -1.49291914
H   -1.86292186  -0.17785592  -1.76591384
O   -0.72013943  -0.62825611   1.09783458
H   -1.59094938  -1.01243510   1.19946323
H   -0.34869516  -0.63890807   1.97996130
O   -0.15399870   2.19024215   0.70029635
H    0.22760795   3.05630973   0.55699541
H   -0.84545974   2.33648632   1.34583963
O   -2.73368524  -2.25500648  -1.69897858
H   -2.63635594  -3.16940001  -1.96476671
H   -3.67272888  -2.08329754  -1.76929868
O    2.09447265   0.26177769   0.90711626
H    1.90074101  -0.17573348   1.73614211
H    2.98438915   0.59736940   1.01509160
O    1.23974976   1.69796374  -1.75416377
H    2.11812596   1.73000378  -2.13318956
H    0.66542019   2.01207661  -2.45252650
O    0.87498912  -0.42019898   3.25009994
H    1.12127082   0.20367098   3.93300801
H    0.69906708  -1.23465477   3.72121038
O    0.99312079  -1.23791785  -1.35125405
H    0.93165074  -2.17259258  -1.15418445
H    1.51598555  -1.19534419  -2.15189865
Ca   0.37738415   0.43260128  -0.26348061
