25
Energy:  -1298.02782654
O   -1.17160737   0.40348189  -1.78624196
H   -1.89133971   0.20644211  -2.38573553
H   -0.89086385   1.28551889  -2.03001575
O    0.54892270  -2.02545402   1.06514152
H    1.10831928  -2.80218073   1.06685456
H    0.47783179  -1.77887124   1.98729924
O    1.35974520   0.49491884  -0.26311460
H    1.75545069   0.81117558   0.54906191
H    1.45011671   1.22579011  -0.87458171
O   -2.25075306  -1.25927252   0.23036234
H   -3.08683631  -0.87692454  -0.03610840
H   -2.41228772  -1.60019882   1.11008256
O    0.37937748   2.52575613  -2.12844830
H    0.12994992   3.43521103  -1.96440702
H    0.80398334   2.54432313  -2.98611781
O   -0.72632867   0.27327819   1.89936716
H    0.05321023   0.68295730   2.27448579
H   -1.43307928   0.50602867   2.50149890
O    1.76995910   1.24258040   2.41889287
H    1.85132843   2.13631652   2.75182923
H    2.36770623   0.72880962   2.96200410
O   -0.03042994  -2.14342992  -1.73262710
H    0.71510300  -2.20608439  -2.32969234
H   -0.55581311  -2.92074086  -1.92234287
Ca  -0.28823991  -0.70261211  -0.24302773
