25
Energy:  -1308.56433269
O    0.07646197   1.65670140   2.25120564
H   -0.49386084   2.35789623   2.56630809
H    0.87997760   1.75291344   2.76241765
O    0.60016881   1.16171094  -0.68981941
H    0.52525272   1.08852006  -1.64127226
H    1.13914307   1.94042197  -0.55072332
O   -2.05198671   1.17255057   0.38998648
H   -2.99575938   1.01822409   0.43131848
H   -1.95484417   1.90353908  -0.22030113
O   -0.71776411  -1.47603864  -0.39168421
H   -1.45399445  -1.72365463  -0.95104371
H    0.00895964  -2.01897302  -0.69717842
O   -1.29496347  -0.91079709   2.44151949
H   -1.53672190  -0.48941184   3.26627350
H   -1.57582448  -1.81997401   2.54518368
O    1.58145036  -2.69788548  -1.26488958
H    2.24706054  -2.46985375  -1.91388608
H    1.57026402  -3.65500010  -1.25869924
O    0.10274579   1.73727558  -3.82690132
H   -0.38139417   1.33097350  -4.54576080
H    0.44577030   2.55026275  -4.19787020
O    1.54217365  -0.65029547   1.46381400
H    1.86100749  -1.17040056   2.20142334
H    2.24700075  -0.69304180   0.81757615
Ca  -0.31811906   0.12186825   0.91278294
