25
Energy:  -1300.00637412
O    0.12255043  -1.43574171  -1.12458883
H   -0.46607657  -2.18283823  -1.01689997
H    0.39286120  -1.47348391  -2.04205243
O   -0.90983632   2.82107168  -1.98494102
H   -1.41125978   2.75457958  -2.79758187
H   -0.70948159   3.75340171  -1.90217307
O   -1.41357059   1.46573096   0.39805076
H   -1.51443158   1.98388207  -0.40043426
H   -1.95651385   1.91496760   1.04584001
O    1.16156649   1.37135155  -1.01997233
H    1.95943314   1.52950437  -1.52457946
H    0.49704518   1.91302974  -1.44568116
O   -1.42737692  -3.57333644   0.24986059
H   -2.28583894  -3.79579356  -0.11039993
H   -1.08723443  -4.40154801   0.58838758
O    2.45758198  -0.93531481   0.49612241
H    3.17084289  -0.56491514   1.01602126
H    2.85357086  -1.67789980   0.04006080
O    1.23910901   1.13023807   1.85925296
H    1.41007013   0.92969919   2.77946397
H    1.24246539   2.08651651   1.81739456
O   -0.94714955  -1.04945189   1.45387381
H   -1.67298721  -0.48813652   1.72648452
H   -1.31816351  -1.93171479   1.43999346
Ca   0.51703256  -0.03565476   0.31536518
