25
Energy:  -1305.52761912
O   -0.07607382   0.60804891   2.34167282
H    0.83997231   0.85053996   2.47691127
H   -0.54792957   1.04933446   3.04796670
O    1.42495636   2.66580667  -0.60425456
H    1.36619846   3.21454468  -1.38634532
H    2.23807367   2.93934763  -0.17969897
O    1.05361651  -0.03921302  -0.41358571
H    1.67701970  -0.67757381  -0.76013414
H    1.38599143   0.80731557  -0.71216252
O   -1.24002281   1.82909903   0.11488056
H   -0.59192480   2.50037026  -0.09865105
H   -2.04410864   2.31848107   0.28861322
O   -2.65313643  -0.47077153   1.41133495
H   -2.83459971  -1.29057797   1.87092208
H   -3.49480679  -0.01532281   1.39160371
O    3.01862746  -1.74004679  -2.64651448
H    2.95125392  -2.11012118  -3.52670627
H    3.95732469  -1.60939576  -2.51231440
O   -1.56164091  -0.95125981  -1.21734024
H   -1.12935653  -0.96158859  -2.07130475
H   -2.36262652  -1.45887061  -1.34766745
O   -0.25875854  -2.06256688   1.17740719
H   -0.18983555  -2.89094384   0.70277777
H   -0.09955486  -2.29601205   2.09195046
Ca  -0.75460976  -0.13621926   0.53163571
