25
Energy:  -1305.22273367
O    0.84601081  -1.25257515  -1.44470391
H    1.41322451  -1.93343312  -1.80655041
H    0.45383752  -0.83449517  -2.21128143
O   -3.08010301   0.79283586   0.78136071
H   -3.60725738   1.36866914   1.33521642
H   -3.71516304   0.36489670   0.20707969
O   -1.14172392  -1.00741844   1.28584409
H   -1.23707753  -1.51983573   2.08869405
H   -1.95851036  -0.51291571   1.21832520
O    0.63238553   1.30237257   2.17870834
H    0.05731585   2.04110933   1.97922224
H    0.61800288   1.23808521   3.13363877
O   -0.59911453   1.02019017  -0.61556966
H   -0.59601506   1.23603650  -1.54811060
H   -1.46968589   1.27799130  -0.31245925
O    2.43666887   0.66679999   0.22471103
H    2.60589391   1.32139421   0.90228106
H    3.15523918   0.77501505  -0.39832835
O    1.44944068  -2.04776019   1.20072949
H    1.23400207  -2.93911854   0.92632402
H    2.13988537  -2.15816751   1.85443294
O   -0.12834179   0.35673163  -3.41556387
H    0.48946145   0.80429051  -3.99370058
H   -0.78970685  -0.00533295  -4.00525645
Ca   0.63686851  -0.29686754   0.37020522
