25
Energy:  -1307.12328417
O   -2.13820244  -0.25079641  -1.13478312
H   -3.03388455   0.06099353  -1.00527468
H   -2.12727133  -0.58336227  -2.03228650
O    2.29326977   1.28228487  -1.99598655
H    2.19343166   1.73955093  -2.83095478
H    3.23571393   1.29099063  -1.82878886
O   -0.73837826   3.11766507   2.09404263
H   -0.27589992   3.34152739   2.90165102
H   -1.25502275   3.89704977   1.88942151
O    0.45675553   1.56013674   0.09359659
H    0.33545367   2.34240431   0.63171847
H    1.15850460   1.79338044  -0.51416773
O    0.70986109  -0.90408842  -1.28870213
H    1.03168926  -1.80162598  -1.37287343
H    1.35618417  -0.37279033  -1.75369747
O   -1.71008472   0.57793122   1.66211839
H   -1.52367008   1.46878323   1.95853724
H   -2.42721296   0.28333404   2.22351971
O   -0.30229007  -1.92855349   1.16816318
H   -0.49548795  -2.25385061   2.04741753
H    0.15821087  -2.65077602   0.74088651
O    1.10312711  -3.57307917  -0.53779584
H    1.97062340  -3.89124277  -0.28788796
H    0.69722918  -4.31280267  -0.98977799
Ca  -0.55798795  -0.18990757   0.14526983
