25
Energy:  -1297.43294878
O   -0.54811588  -3.05551563  -1.61935417
H   -0.56004615  -3.79584963  -1.01272818
H   -0.84005855  -3.42380549  -2.45323900
O   -1.75996952   2.00249226  -0.65822006
H   -2.15558147   2.45548375  -1.40288223
H   -2.27181568   2.29073553   0.09753199
O    1.53458481   0.96461551   3.17874873
H    1.17211222   1.38424736   3.95897598
H    2.46051286   0.83525266   3.38406398
O    0.87035796   1.85952111   0.63082929
H    0.66302589   2.77601229   0.44837605
H    1.21727994   1.86495416   1.52293212
O    1.50613769  -1.21077751  -0.50592260
H    2.25873190  -1.53084858  -0.00854114
H    1.37888479  -1.86295532  -1.19490929
O    0.49745669   0.89552483  -2.18155901
H    1.36942203   1.16164220  -2.47326066
H   -0.09774588   1.27197056  -2.82982930
O   -0.22178373  -0.53608969   1.63519488
H   -0.81295217  -1.20444607   1.98167932
H    0.20067240  -0.16457951   2.40962555
O   -1.70646910  -0.84759536  -0.69773134
H   -2.62806768  -0.61591434  -0.81267398
H   -1.63842882  -1.73863230  -1.04074088
Ca   0.02010600   0.20884574  -0.26769629
