25
Energy:  -1305.95643744
O    0.68401936  -2.05916560   0.28101091
H    0.29396776  -2.91147789   0.08696101
H    1.61892442  -2.17961839   0.11465131
O   -0.97501629   1.60857555   1.29513559
H   -0.94158091   2.16946986   2.07006236
H   -1.29332247   2.18164996   0.59764097
O   -2.03077368  -1.14439607   1.07406313
H   -2.58209769  -1.14349563   1.85654180
H   -2.58206669  -1.52881246   0.39249735
O    0.19266194  -0.65071040   2.85118158
H    0.31613414  -0.09120991   3.61795774
H    0.14470359  -1.53809461   3.20682341
O    1.76557138   0.54549279   0.73699013
H    2.20737992   0.95504792   1.48083262
H    2.41833176   0.55191217   0.03692262
O   -0.99796463   2.94280432  -1.31615940
H   -0.44326023   3.68701134  -1.55002000
H   -1.82688441   3.11117337  -1.76423944
O    1.68003363  -1.64324536  -3.48516479
H    1.74886801  -1.15537527  -4.30582090
H    2.29585589  -2.36919015  -3.58515947
O   -0.51025868   0.17984424  -1.16468332
H   -0.24172217  -0.26582839  -1.96811091
H   -0.67508206   1.08318337  -1.43494896
Ca  -0.18243026  -0.24249340   0.81927721
