25
Energy:  -1327.32419839
O   -2.74634711   1.00721303  -1.65285118
H   -3.62941086   1.09739729  -1.29466538
H   -2.83857927   1.23307685  -2.57843781
O   -0.49666648   0.76236131   1.31907623
H   -1.10058906   0.77433925   2.06161638
H   -0.65136479   1.59366388   0.87048251
O    0.32469805  -1.96210369   1.97029801
H    0.90113373  -2.07115163   2.72664601
H   -0.32012740  -2.66420788   2.05679473
O    1.92256100  -2.11239204  -0.42307847
H    2.20887056  -2.95207408  -0.06364455
H    2.44854993  -1.99829917  -1.21462779
O    2.26334224   0.21427672   1.34041939
H    2.26510553   1.09005742   1.72673133
H    3.15598992  -0.10650206   1.46892205
O   -1.02197133  -1.41112532  -0.58044729
H   -1.70743467  -0.80746406  -0.86674249
H   -1.29507652  -2.26312520  -0.92065547
O   -0.84392786   2.76011162  -0.38545111
H   -0.94458941   3.70939918  -0.45582311
H   -1.57617185   2.40321419  -0.88811881
O    1.02438540   0.53978270  -1.29023543
H    0.95854369   1.49215279  -1.22032169
H    0.88621253   0.35725494  -2.21965660
Ca   0.65447434  -0.64930580   0.39614837
