25
Energy:  -1305.96232079
O   -0.84393469   2.75921996  -1.98334779
H   -0.63058834   3.05834564  -2.86722505
H   -1.58864325   3.29995852  -1.72020752
O   -0.41896961   0.38433217   1.98379270
H   -0.82315454  -0.32475793   2.48385033
H   -0.40770617   1.12735430   2.58713596
O   -1.22673419   0.15423635  -1.08222412
H   -1.93536762  -0.34135870  -1.49265812
H   -1.23222173   0.99874217  -1.53279226
O   -1.52321256  -2.02833496   2.91326846
H   -1.24981033  -2.57656269   3.64874750
H   -2.47972704  -2.04062851   2.94733846
O    2.38898061  -0.60613009   0.18792256
H    2.69181143  -0.76965248  -0.70526598
H    3.12283908  -0.87109538   0.74242864
O    0.84006766   1.89400337  -0.00663083
H    1.58859949   2.39204593   0.32182850
H    0.37446169   2.50744136  -0.57508202
O    1.14771080  -0.52546552  -2.27735337
H    1.53280635   0.12626547  -2.86316902
H    1.00558810  -1.29252477  -2.83201822
O   -0.18806701  -2.04295609   0.50245100
H   -0.72835270  -2.31366524   1.24477153
H    0.13377870  -2.86305488   0.12817148
Ca   0.39911990  -0.11246227   0.13126772
