25
Energy:  -1310.45873600
O    2.97443990   3.01628013   0.60488099
H    3.62697008   3.04629343   1.30454906
H    3.17173048   3.77804564   0.05988412
O    1.78349723  -1.54950856   0.21196746
H    2.34596716  -1.82595093  -0.51152341
H    2.33328826  -1.63758183   0.99055899
O   -0.86981535  -2.85915539   0.22862028
H   -1.73433880  -3.19242497  -0.01171789
H   -0.34493555  -3.64419669   0.38496351
O    0.51481278   1.07708236  -0.14548075
H   -0.06432272   1.75389844  -0.49584331
H    1.32048564   1.54293972   0.07834954
O    0.04551668  -1.26648868  -2.00479612
H   -0.54614291  -1.89806318  -2.41380029
H    0.63082181  -0.99355232  -2.71130550
O   -0.18234228  -0.81613828   2.16931551
H   -0.12997415   0.00656782   2.65577630
H   -0.13337821  -1.49590042   2.84144482
O   -2.10381405  -0.18757889   0.02846998
H   -2.28960012   0.73596173  -0.14120059
H   -2.96140163  -0.57782521   0.19723969
O   -2.19402127   2.34935920  -0.98276667
H   -2.45690062   2.43496903  -1.89917119
H   -2.57277884   3.11558299  -0.55186570
Ca  -0.16518498  -0.88398220   0.06008850
