25
Energy:  -1300.41252969
O    2.71472887  -2.33217228   1.68491267
H    3.64311992  -2.15528208   1.83667484
H    2.52576258  -3.10081911   2.22315577
O    0.92528582  -0.22506931   1.60722685
H    0.68036459   0.24064494   2.40682406
H    1.51239259  -0.92012843   1.90459919
O    1.23228605  -1.86116690  -0.66300486
H    1.86609478  -2.15589885  -0.00905423
H    1.22794213  -2.55475355  -1.32266427
O   -2.02727206   3.44825999  -0.67374166
H   -2.57868768   3.72355653  -1.40612441
H   -2.00543970   4.20743656  -0.09115594
O   -1.73570861  -1.61183078   0.46425634
H   -1.73480846  -1.98355556   1.34632874
H   -2.56567228  -1.89907794   0.08362369
O   -1.45060512   1.06532421   0.24937543
H   -2.23192390   0.69663843   0.66149630
H   -1.72961845   1.92383856  -0.06895855
O   -0.54065829  -0.21240878  -2.24606705
H   -1.37935971   0.11605120  -2.56998960
H   -0.03655153  -0.40438342  -3.03679707
O    1.04949812   1.68917668  -0.62729498
H    1.75919801   2.12547761  -0.15591465
H    0.71019582   2.35764132  -1.22249312
Ca   0.08791875  -0.17565201  -0.29738101
