25
Energy:  -1307.25186947
O   -0.51248396   1.58826169   0.39918236
H   -0.07412891   2.35274092   0.77287770
H   -1.24988037   1.42336274   0.98679338
O    0.33850882  -2.30931263   2.24999559
H    0.05681300  -1.97723835   3.10240745
H    0.40410931  -3.25653948   2.37119675
O    1.81457009   1.81196717  -1.44219755
H    1.49849001   2.17284308  -2.27050534
H    2.65961503   2.23891527  -1.30132096
O   -3.63017453   1.12281233   1.50689430
H   -4.33322379   1.72963213   1.27511138
H   -3.94707922   0.67717762   2.29252333
O   -0.72119325  -1.18167515  -0.03310002
H   -1.67124039  -1.24515968  -0.13114080
H   -0.50386609  -1.83794650   0.62894883
O   -0.57020601   0.59211750  -2.35855397
H   -0.52924746   0.28942857  -3.26571088
H   -1.33068710   1.17286677  -2.33344126
O    1.73773596  -1.21101113  -1.68968201
H    1.41709196  -1.80702887  -2.36657353
H    2.61921294  -1.52635127  -1.49020578
O    1.75976199  -0.23126004   0.98797814
H    1.47091396  -0.93334379   1.57096791
H    2.60669469   0.04090789   1.34133555
Ca   0.64484005   0.23068387  -0.67292627
