25
Energy:  -1310.18448775
O   -0.17766323   1.24521405  -2.06554071
H   -0.05694667   2.12881777  -2.41325301
H   -0.45983591   0.72715325  -2.81934668
O    0.24253730  -0.50705594   1.61207805
H   -0.37085198  -0.42248583   2.34203240
H    1.07347649  -0.74524085   2.02322261
O   -1.00092302  -0.79840570  -3.72608484
H   -1.88078716  -0.81320358  -4.10271725
H   -0.43646621  -1.13597067  -4.42154889
O   -1.95917054   0.44030882   3.04408424
H   -1.84958319   1.02654212   3.79278510
H   -2.70545282  -0.11137784   3.27846948
O    3.00961360  -0.67004127   1.94731158
H    3.45903263  -0.15974322   2.62099569
H    3.49161874  -1.49620930   1.91057908
O   -0.56381609  -1.45803549  -1.07816614
H   -0.68976728  -2.34766668  -0.74812903
H   -0.78172561  -1.51412305  -2.00854320
O    2.02934054   0.55516377  -0.31966035
H    2.65449880   0.93093520  -0.93950294
H    2.57258075   0.20344205   0.38561531
O   -1.56745366   1.35893895   0.47427887
H   -1.87281488   1.19684564   1.36686619
H   -2.17652606   2.01053460   0.12688030
Ca   0.01159468   0.29888870  -0.25009285
