25
Energy:  -1306.21882487
O   -0.16674344  -2.33596974   3.14019494
H   -0.74978269  -2.05033239   3.84355002
H    0.31983130  -3.07009836   3.51507098
O    2.07569535  -0.27652593  -0.47173451
H    2.57744750  -0.04559600  -1.25349407
H    2.66029703  -0.84521234   0.02933283
O    1.04764855   2.30384823   0.34072273
H    0.66199649   3.13773686   0.60930064
H    1.96614196   2.50930058   0.16639249
O   -0.36046688   0.74850367  -1.80330268
H   -0.24619826   1.65437668  -2.09065026
H   -0.73783941   0.30208618  -2.56128239
O   -0.90722883   0.02699527  -4.61990972
H   -0.92082931  -0.81430092  -5.07627318
H   -1.68649842   0.48415816  -4.93609455
O   -1.64001292   1.13615728   0.73813419
H   -2.43878752   1.29129845   0.23402884
H   -1.92982544   1.12745378   1.65036486
O   -0.52900236  -1.55079917   0.25171578
H   -1.04754404  -2.00632956  -0.41148738
H   -0.58497545  -2.11043897   1.02624929
O    0.71616199   0.10850929   2.18697050
H    0.67986572  -0.78863372   2.51870660
H    0.91129669   0.64163673   2.95763867
Ca   0.22611428   0.37722254   0.16399711
