25
Energy:  -1305.54921547
O   -1.29987075  -0.05339426  -1.98179392
H   -0.82658847  -0.54615744  -2.65218201
H   -2.18806979   0.03129670  -2.32843746
O    1.44748725  -0.78467244  -1.62777202
H    2.09235752  -0.64255417  -2.32071977
H    1.41135208  -1.73564567  -1.52493224
O   -0.35847497  -1.66268896   0.50602562
H   -0.69579925  -2.00191021   1.33510531
H   -0.10205527  -2.44275524   0.01411365
O    0.78145347   0.80700404   1.55496856
H    0.20877124   1.43128236   2.00055075
H    1.58986578   0.81484322   2.06745265
O    1.27219625  -3.41295576  -1.02782093
H    1.99152593  -3.85308685  -0.57496192
H    0.81113449  -4.11576120  -1.48577115
O    0.90296187   1.91256327  -1.09055231
H    1.71958664   1.77782966  -1.57138773
H    0.79479295   2.86322975  -1.06290126
O   -1.80156300   1.28636599   0.44783260
H   -1.79332735   1.65828330   1.32978585
H   -2.70318965   1.40085432   0.14751002
O   -0.97911230   2.18027117   3.02903873
H   -1.14607918   3.05970134   3.36809105
H   -1.01102325   1.61534640   3.80109673
Ca  -0.11196942   0.29769678  -0.28036388
