25
Energy:  -1297.54545855
O   -1.84020869  -2.01769605   0.21475063
H   -1.78335822  -2.72307565   0.85929658
H   -2.46347429  -2.33806013  -0.43727598
O   -2.46997095   0.80069901  -0.12419442
H   -2.38919948   1.10428364  -1.02837593
H   -3.35657769   1.05171320   0.13494301
O    1.81924204   0.20766377  -2.72982370
H    2.17834967  -0.27217890  -3.47616449
H    2.41349650   0.94885208  -2.61263422
O    0.25581115   1.58322343   0.46736473
H    0.97790543   1.71125693   1.08252254
H    0.05107274   2.46316993   0.15112401
O   -0.48153922  -0.51709468   2.21561889
H   -0.79047807  -1.07093336   2.93259264
H    0.24014135  -0.01493299   2.59409297
O   -0.73940959   0.36549972  -2.15320756
H   -1.33853916   0.42799059  -2.89709633
H    0.13345507   0.40401881  -2.54417485
O    1.04577185  -1.16590048  -0.46315041
H    1.60407086  -1.91526571  -0.25582021
H    1.39953215  -0.82283143  -1.28375331
O    1.82881936   0.60787524   2.83114943
H    2.68331186   0.18591089   2.74159214
H    1.96667004   1.29248642   3.48577647
Ca  -0.70767954  -0.25104735   0.17336008
