25
Energy:  -1301.26309692
O   -0.91759557   1.56636243   0.28554232
H   -1.26673836   1.89778189   1.11288282
H   -1.55803761   1.83890769  -0.37156111
O   -3.93349134   0.90268146  -2.21859956
H   -4.07721919   0.46134533  -3.05573550
H   -4.63064381   1.55673118  -2.16931222
O    0.11362170  -0.86529548  -1.15721328
H   -0.02066532  -0.79135230  -2.10205784
H   -0.26704136  -1.71264792  -0.92629918
O   -0.73248415  -3.06180471   0.24203837
H   -0.25010706  -3.88512086   0.16657509
H   -1.65272955  -3.32413467   0.26577099
O    1.66258582   1.73119872  -0.99775667
H    2.28044718   1.57468504  -1.71188738
H    1.43644978   2.65810001  -1.07488219
O    1.59298776   1.56130396   1.88482739
H    2.25750745   2.24648385   1.81289730
H    1.41400011   1.49812240   2.82301893
O   -0.08369186  -0.85533591   1.73850248
H   -0.42804996  -1.66897321   1.37020410
H   -0.36502473  -0.86804068   2.65333703
O    2.55404305  -0.73487995   0.34428389
H    2.59243176  -1.63374327   0.01747679
H    3.42955931  -0.56901874   0.69384529
Ca   0.80101000   0.38722272   0.34707514
