25
Energy:  -1336.64564821
O    0.92389116   2.38635554   2.56426261
H    0.31198066   2.78591819   3.18244306
H    1.78891340   2.64755311   2.88008567
O    1.42170133   0.27070315  -0.75008247
H    1.37049560   1.20660426  -0.55592032
H    2.35220227   0.10832689  -0.90511089
O   -0.52549024  -0.93220697  -2.51926445
H   -1.14737041  -1.40502916  -3.07237934
H   -0.08419861  -0.32817344  -3.11645541
O   -1.90769661  -2.13714142  -0.19391219
H   -2.80851481  -1.88897544   0.01386669
H   -1.92706942  -3.09294165  -0.24189606
O   -1.44730683   0.78932741  -0.32203178
H   -0.98386873   1.62672365  -0.30704765
H   -2.37382950   1.02714093  -0.28692739
O    0.46099558   2.73084434  -0.13297815
H    0.64955229   2.86178510   0.79628647
H    0.54487677   3.60228849  -0.51999351
O    0.02862050  -0.85441706   1.59834765
H    0.26652680  -0.12797890   2.17447268
H   -0.15093277  -1.58307224   2.19253121
O    0.93103286  -2.60448307  -0.58847262
H    1.10604516  -3.11888750  -1.37650220
H    1.49717111  -2.98980316   0.08029323
Ca  -0.26546503  -0.88975746  -0.45763227
