25
Energy:  -1299.67330481
O   -1.77939966  -1.27432904  -0.70032690
H   -1.89510858  -2.02827805  -1.27860381
H   -2.66427551  -0.93297685  -0.57107803
O   -1.30222813  -0.14029305   1.95957444
H   -1.29036768  -0.45300914   2.86417370
H   -1.88091811   0.62197680   1.97673322
O   -0.19210909   1.29335911  -0.33388275
H   -0.72355951   1.85228106  -0.90080300
H    0.46776514   1.88181569   0.03288244
O    1.19376561  -1.07711061  -1.23593066
H    1.73255292  -1.82057952  -1.50647467
H    1.24319015  -0.46509873  -1.97025383
O   -1.54406023   1.35084096  -3.11850432
H   -1.77884103   1.89444552  -3.87057074
H   -2.10205558   0.57718596  -3.19807181
O    2.12539079   2.44775940   0.87392276
H    1.94301146   3.14585306   1.50291788
H    2.89787598   2.75056223   0.39662943
O    1.52161510  -0.14526079   1.52150569
H    1.74465300  -0.47768340   2.39097745
H    2.00273460   0.67906053   1.44904722
O    0.08490181  -2.61416295   1.09925367
H    0.68543972  -3.20270337   0.64186300
H   -0.45545546  -3.19308322   1.63693126
Ca  -0.10538419  -0.65835328   0.34095321
