25
Energy:  -1358.24980504
O    1.36828256  -1.52357984   0.36479909
H    1.80250016  -2.22895302  -0.11492541
H    1.74874868  -1.56053369   1.24235922
O   -1.59244023   1.28786628  -0.36346078
H   -1.65343716   1.66075775  -1.24292832
H   -2.31600518   1.68897650   0.11799141
O    1.31344856   1.38115527  -0.00784178
H    2.16134752   1.38081585  -0.45202542
H    1.27303160   2.23060116   0.43152139
O    1.90066458  -1.19023403   3.05558415
H    2.67080052  -0.72547136   3.38287324
H    1.79232236  -1.92779020   3.65600459
O    0.10350196  -0.33452145  -2.05035552
H   -0.27222429   0.33944452  -2.61677542
H    0.47216678  -0.97824053  -2.65528844
O   -1.30152596   1.82025981  -3.05916010
H   -0.87790500   2.61079351  -3.39357541
H   -2.03610170   1.67144826  -3.65454692
O   -0.32766750   0.09880019   2.05169313
H    0.36752420  -0.23923203   2.61620580
H   -0.98565611   0.43827947   2.65835338
O   -1.55022766  -1.63014159   0.00925459
H   -2.27581480  -1.75211593  -0.60301775
H   -1.63212182  -2.35727437   0.62634705
Ca  -0.11987455  -0.12605439   0.00071543
