25
Energy:  -1311.19802791
O    0.86411079  -1.69000783   0.78655448
H    1.77940864  -1.73838348   1.06245570
H    0.53193373  -2.58055017   0.89980021
O   -1.77641035   1.30061218  -0.08620746
H   -1.76595079   1.93345883  -0.80427958
H   -2.68155888   1.30581297   0.22509776
O    1.39138982   1.04081553   0.52708829
H    1.50053947   1.99177195   0.52738985
H    2.25517590   0.70003465   0.75941101
O    3.61081540  -0.47173469   1.19559790
H    4.37960015  -0.70678190   0.67602628
H    3.94631743  -0.36450039   2.08563781
O   -0.05425377  -0.15905012  -1.75956125
H   -0.49778718   0.42947114  -2.37042350
H    0.49021868  -0.71627913  -2.31568842
O   -1.32536118   1.83537602  -3.22575077
H   -0.91709847   2.54337005  -3.72404572
H   -2.09547566   1.59307109  -3.73999181
O   -0.75222820   0.09045249   2.34753239
H   -1.09655372   0.85544038   2.80847198
H   -0.57188678  -0.54569362   3.03965012
O   -2.01802416  -1.91841687   0.22716935
H   -2.56411937  -2.10238485   0.99147797
H   -2.30061227  -2.55576321  -0.42870065
Ca  -0.33777923  -0.09639562   0.32543644
