25
Energy:  -1306.30080090
O    0.79482832   1.38174783   0.47003351
H    1.14628215   1.57169174   1.33988026
H    0.77472581   2.23086981   0.02864979
O   -1.72498705  -0.13907332   0.67923896
H   -2.22032600  -0.43251221   1.44393811
H   -2.20850870   0.62184879   0.35762396
O    1.98386944  -0.89376975  -1.04101538
H    2.20617261  -0.79685591  -1.96698561
H    2.82558647  -1.02534101  -0.60462874
O   -0.53180774   0.21304821  -1.90693041
H   -1.42779227  -0.03125824  -2.13878796
H   -0.22659558   0.73692464  -2.64762662
O    1.10090962  -1.19752990   1.72532413
H    1.30144082  -2.04241201   2.12805643
H    1.50491384  -0.55286204   2.30619915
O   -0.51115306  -2.47982425  -0.25703912
H   -1.15797464  -2.89328265   0.31471768
H   -0.15217348  -3.20091094  -0.77414597
O   -3.00473016   1.82055231  -2.93534125
H   -3.69088945   1.50944071  -3.52578757
H   -3.09966277   2.77302983  -2.93783456
O    1.91840666   1.04483471   3.02893099
H    2.82595633   1.02851229   3.33277144
H    1.41732136   1.34837914   3.78590270
Ca   0.16057529  -0.51744703  -0.08554549
