25
Energy:  -1297.40082222
O    0.40482041  -0.74702415   1.68135540
H   -0.25097691  -0.29671966   2.21369701
H    1.19482884  -0.74557903   2.22183338
O    1.68987774   4.00587394   2.00845597
H    2.56876924   4.36301172   1.88104255
H    1.27072932   4.61206673   2.61925606
O    1.16434640   0.31764095  -0.81669888
H    0.83010030   1.21378105  -0.77869486
H    2.09799098   0.41742304  -1.00266441
O   -1.71117945   0.17139688  -0.04119945
H   -2.65241182   0.16552303   0.13280908
H   -1.51764104   1.07686334  -0.28390343
O   -0.47739547   2.53409057  -0.51395362
H   -0.82334815   3.08670327  -1.21478726
H   -0.32578503   3.13669226   0.21413795
O   -1.49950862  -2.65156985   0.39512992
H   -2.34942943  -2.97760322   0.09920983
H   -1.25277879  -3.23873806   1.10968554
O    1.25580947  -2.71518989  -0.52810888
H    2.19585859  -2.77894599  -0.35936454
H    1.00775963  -3.58662058  -0.83683478
O   -0.76454968  -1.37625051  -2.27532844
H   -0.29267616  -1.31529823  -3.10590177
H   -1.68904369  -1.35154578  -2.52217321
Ca  -0.12198666  -1.20497640  -0.27936754
