25
Energy:  -1359.10796864
O    0.56075248  -1.98540502   0.49334492
H   -0.21919560  -2.53447481   0.57356468
H    1.29329817  -2.59803967   0.55882349
O    0.05419529   2.11448593   0.16021445
H    0.08887869   2.50711883  -0.71206321
H   -0.05860769   2.85721044   0.75339878
O    2.38741106   0.32873053   0.40044019
H    3.02762362  -0.01444530  -0.22292975
H    2.89264764   0.91213960   0.96665720
O    0.26442311   0.22791419   2.41790710
H    0.89047631  -0.11800789   3.05401019
H   -0.46259780   0.55285954   2.94902194
O    0.41471033  -0.04905980  -1.72149106
H    0.39334569   0.75108953  -2.24640672
H    0.39630777  -0.75822448  -2.36412521
O    0.25280886   2.58304955  -2.55453370
H    1.00250131   3.04697751  -2.92731235
H   -0.49708877   2.89048177  -3.06381832
O   -1.72606479  -0.22620762   0.32778826
H   -2.08313626  -1.10579368   0.45050813
H   -2.49000725   0.31873350   0.13894190
O   -2.01940098  -2.95387262   0.67702115
H   -2.35421286  -3.33070988   1.49073273
H   -2.39817255  -3.49822382  -0.01322932
Ca   0.32259855   0.06771508   0.34285334
