25
Energy:  -1300.23956393
O    0.59206369   2.06951765  -0.93217810
H   -0.24679727   2.41627224  -0.62836006
H    0.99531171   2.79726330  -1.40547416
O    0.88892580  -1.87331382   0.34866784
H    0.96943233  -2.73131325  -0.06797051
H    0.90453824  -2.05994090   1.28736824
O    0.85125296  -1.69711808   3.00832166
H    1.60416654  -1.83733696   3.58250946
H    0.11277217  -2.07787347   3.48361452
O   -3.00350656   0.49079910  -1.89448568
H   -3.74382758  -0.02502757  -1.57498687
H   -3.37122203   1.03035627  -2.59441084
O    2.51938714  -0.03143440  -0.94335529
H    3.26088794  -0.44004568  -0.49676238
H    2.89897641   0.35943711  -1.73035167
O   -0.55952526  -0.68944311  -1.84464625
H   -1.46989003  -0.42900858  -1.98479506
H   -0.35984626  -1.26908494  -2.57974862
O   -1.61653985   1.14379999   0.38482730
H   -2.07718374   1.45761629   1.16300362
H   -2.28629535   1.12371381  -0.29873393
O    0.78091374   0.66965691   1.64729803
H    0.79599270   1.49592885   2.13028783
H    0.78572020  -0.00522222   2.32608143
Ca   0.59439696   0.07531844  -0.29616645
