25
Energy:  -1307.23610113
O   -1.00614590   0.44865034  -2.59325321
H   -1.36951236   1.23916511  -2.99235604
H   -1.11261551  -0.22828931  -3.26157107
O    1.21433967   3.22200471   1.99610058
H    0.68350888   3.69534237   2.63672682
H    2.09532252   3.58091583   2.10232620
O    1.72742877  -2.98454178   1.08296249
H    2.67850189  -2.90243110   1.01260907
H    1.59246332  -3.78696717   1.58707524
O   -2.38821923  -0.99971666  -0.47762251
H   -2.73940711  -1.37764951   0.32864400
H   -3.04418771  -1.20412349  -1.14407210
O   -1.44070328   1.70113016   0.16837887
H   -0.92827797   2.31763556   0.69142118
H   -2.28609395   2.13355260   0.04772525
O    0.37218706  -1.83760881  -1.06688818
H    0.65142507  -2.39910799  -0.34371692
H    0.72983923  -2.25790989  -1.84897754
O   -0.02470184  -0.45877503   1.39572128
H   -0.22205062   0.07717303   2.16386513
H    0.46469389  -1.20461040   1.74278506
O    1.29733459   0.92789195  -0.81164513
H    1.67638071   1.32981090  -1.59332092
H    1.99563597   0.96858316  -0.15823005
Ca  -0.54309346  -0.01186531  -0.56113918
