25
Energy:  -1303.10424884
O   -0.48679348  -1.49474984  -0.91830600
H   -1.00162497  -2.26709406  -0.68450099
H   -0.05967404  -1.73127072  -1.74162775
O    0.16074858   2.24331379   0.39153704
H    0.37132614   2.90481828   1.05055203
H   -0.42722213   2.69001210  -0.21754662
O   -0.31946119  -0.92480440   3.70227848
H   -0.52243921  -1.78101957   4.07901095
H   -0.24978807  -0.34075999   4.45744047
O    1.55358741   0.46298379  -1.32870293
H    1.67754326  -0.15940787  -2.04528888
H    2.16886672   1.17160348  -1.51717405
O   -1.50058403   0.01622839   1.37472402
H   -1.36845674  -0.28390592   2.27399796
H   -2.43815567   0.20073506   1.31861190
O    1.36868294  -0.54483332   1.48686287
H    1.07654680  -0.74425315   2.37631217
H    2.31606457  -0.67969022   1.50952354
O    1.13191930  -1.64340597  -3.13293412
H    1.75834065  -2.35046585  -3.28751246
H    0.80648137  -1.41640181  -4.00402029
O   -1.78519575   2.00229805  -1.50140111
H   -2.57516483   2.50268981  -1.29697809
H   -1.79568182   1.91610055  -2.45465442
Ca   0.08236878   0.21135963   0.07823433
