25
Energy:  -1304.16358660
O   -1.33980204   2.44720042  -0.56690983
H   -2.01041571   2.86011655  -0.02284235
H   -1.14963087   3.09446635  -1.24596329
O    0.40595221   0.79806222  -2.21540259
H    1.30359919   1.10795008  -2.09527244
H    0.29950328   0.73302489  -3.16443927
O   -0.93936523   0.70394699   1.61865924
H   -0.76237571   1.28324520   2.35982059
H   -1.27167934  -0.10055267   2.01687964
O    3.10975971  -1.34568556   0.06019011
H    3.55893434  -1.58084281   0.87208609
H    3.46118709  -1.95120626  -0.59255435
O   -2.13777231  -0.28759593  -1.08963463
H   -2.22022509  -1.23696099  -1.17985305
H   -2.96912073   0.05751319  -1.41519776
O   -1.67400057  -1.81296553   2.00407369
H   -2.59116812  -2.07697044   1.93101927
H   -1.31837923  -2.36992196   2.69657989
O    0.39603328  -1.22712254   0.00811197
H    1.32396389  -1.46014864  -0.02147629
H   -0.02027715  -1.95727237   0.46614985
O    1.95771832   1.22271855  -0.05007942
H    2.43069742   0.39232139   0.00435557
H    2.63625815   1.89176796   0.04041050
Ca  -0.40434148   0.61213639  -0.33002886
