25
Energy:  -1302.38911582
O   -0.51927258  -1.51293201   0.10217237
H   -1.47210609  -1.55134328   0.01931880
H   -0.23374255  -2.42215074   0.01258576
O    1.89313922  -0.76320659  -3.61681930
H    2.35140604  -0.25292572  -4.28452941
H    1.79654846  -1.63326223  -4.00399531
O    1.14304525  -0.34860460   2.28358370
H    0.92449930  -0.02933629   3.15910484
H    1.72825063  -1.09022876   2.43772687
O   -1.39791501   0.81014617   1.81495050
H   -1.54609930   1.58543842   2.35642552
H   -2.22597088   0.33124991   1.84978855
O   -3.19344217  -1.14459166   0.46176831
H   -4.05596906  -0.79793715   0.69004415
H   -3.37479363  -1.99510470   0.06180448
O    1.22923933   2.17167848   0.99451002
H    1.45391904   2.98924508   0.55028516
H    1.81548888   2.14037574   1.75052818
O    1.80463839  -0.15286643  -0.73548854
H    1.82624982  -0.23778575  -1.68866927
H    2.64338666  -0.51002890  -0.44365270
O   -0.78670319   1.21820139  -1.11131219
H   -1.44946226   1.88546814  -1.28946201
H   -0.60861471   0.82297525  -1.96472454
Ca   0.18043641   0.37880548   0.55099664
