25
Energy:  -1307.58635063
O   -3.12794207  -2.36334442   2.32538417
H   -3.66452132  -2.07755681   3.06473524
H   -3.36996334  -3.27998286   2.19335564
O    1.11352748  -1.92431768  -1.21203296
H    1.85295605  -2.22021268  -1.74299754
H    0.71287282  -2.73092282  -0.88784809
O   -0.50720740  -0.03819556  -2.61212090
H   -0.93589619   0.61950854  -3.15973671
H   -0.39074688  -0.79251330  -3.18976572
O    0.91032677   2.46061133   2.14523129
H    1.36888050   3.21133050   1.76789715
H    0.62567677   2.76211974   3.00795888
O    2.13584993   0.79915832  -1.50495618
H    2.99419769   0.94727698  -1.10805339
H    2.14984265   1.31957595  -2.30820057
O   -1.40647067  -0.86377399  -0.07814277
H   -1.72794231  -1.01890731   0.81001346
H   -2.16649860  -1.01888085  -0.63897363
O    1.29697774  -0.09554232   1.10619213
H    1.80419173  -0.78082341   1.54134229
H    1.36198678   0.65927642   1.69121721
O   -0.29991524   1.88132731  -0.33994189
H   -0.94371920   2.49624712  -0.69154101
H   -0.19525395   2.14074892   0.57546965
Ca   0.39019423  -0.01526452  -0.74611674
