25
Energy:  -1338.39364463
O   -0.19756769  -1.57070766  -0.34547870
H    0.14781929  -2.43337028  -0.57515866
H   -0.76964715  -1.33870070  -1.07700431
O   -1.70636670  -0.13765268  -2.06680725
H   -1.10984291   0.16375558  -2.75204026
H   -2.48145460  -0.44078376  -2.53965199
O    1.31157569   0.99325041  -0.37246095
H    1.39149756   0.77858216  -1.30184886
H    1.83774111   1.78533624  -0.26299943
O    1.91227805  -1.03049459   1.62728301
H    2.80849690  -0.92112330   1.30938124
H    1.97705442  -1.70941979   2.29892015
O    0.50253198   0.60885771  -3.57289839
H    0.34536327   1.31899156  -4.19518431
H    0.92248722  -0.07679900  -4.09226753
O   -1.53427075   0.93751943   0.43255403
H   -1.81706119   0.76443589  -0.46539001
H   -2.18187380   1.55449970   0.77340219
O    0.55999005   1.41711945   2.44482001
H    1.21580714   1.35400329   3.13919178
H    0.16758418   2.28212038   2.56323822
O   -0.89946112  -1.20563650   2.38528256
H   -1.07970861  -1.08898407   3.31809278
H   -1.44092430  -1.95176015   2.12769963
Ca   0.16464434  -0.06737799   1.02497906
