25
Energy:  -1312.67850297
O    3.17353230   2.16857022   1.43515105
H    3.77798923   2.67668766   0.89415166
H    3.49788189   2.28186456   2.32856786
O   -2.11725789   2.24195998  -1.50649179
H   -1.90542670   3.16210020  -1.34932505
H   -2.97266190   2.26252159  -1.93555243
O    0.62689240  -2.53430333  -0.77247218
H    0.23637387  -3.36621806  -1.04013803
H    1.49263414  -2.77150539  -0.44011955
O    1.79100586   0.05244565  -0.04854038
H    2.30837981   0.65678584   0.48374617
H    2.30148520  -0.05819610  -0.85066324
O   -2.08693449  -1.64496702   0.12620327
H   -2.47140837  -2.38326860   0.59877333
H   -2.82595761  -1.23893639  -0.32680424
O   -1.11589262   0.94194234   0.68117602
H   -1.23484262   1.39890527   1.51380296
H   -1.58030798   1.48258024   0.04222306
O    0.26594878  -1.36570955   1.98785436
H    0.21911946  -0.75654045   2.72470705
H    0.63140722  -2.16735727   2.36206408
O   -0.53444647  -0.18865910  -1.94505862
H   -0.38335459  -0.63008368  -2.78085012
H   -0.97051756   0.63000281  -2.18141965
Ca  -0.14122311  -0.75703110   0.02486854
