18
Energy:   -141.42102145
O    1.37132673  -1.65584065   0.11742834
H    2.20936574  -2.03770496   0.37839216
H    1.59912570  -1.01398528  -0.55514965
O    1.74156975   0.25773049  -1.78512465
H    2.13685975   0.62854079  -2.57409701
H    0.82921532   0.54566002  -1.81574878
O   -0.89969269   0.89891758  -1.66702424
H   -1.18740639   0.14492353  -1.15229553
H   -1.03068807   1.64928971  -1.08735734
O   -1.35036853  -1.25400499  -0.01295082
H   -1.71280023  -2.06521938  -0.36904959
H   -0.42008186  -1.44141868   0.11224774
C   -0.62216842   0.84497933   2.69385809
H    0.35126622   0.41318650   2.58955024
H   -1.36079137   0.07149036   2.66145368
H   -0.68559885   1.35973395   3.62975518
C   -0.86882979   1.83882406   1.54362732
N   -1.05248038   2.57878663   0.68722822
