18
Energy:   -141.20640337
O   -0.08382147   0.02114549   1.75187603
H   -0.45231906  -0.29959244   2.57502155
H    0.12949511  -0.77147707   1.25945613
O    0.30419434  -2.20048401   0.18156487
H    0.68905019  -3.01752025  -0.13556224
H   -0.36903418  -1.98582314  -0.46412540
O   -1.73069740   1.01905556  -0.20993446
H   -1.22070613   0.75654043   0.55637264
H   -1.20228244   1.69856608  -0.62859296
O   -1.63717529  -1.34795507  -1.53348222
H   -2.43252172  -1.45080129  -2.05605140
H   -1.72741012  -0.48648529  -1.12610114
C    2.55671460   1.56134972   0.21054648
H    2.43045599   1.73206487   1.25926726
H    3.47063844   2.01147890  -0.11660185
H    2.59015448   0.50861770   0.02203609
C    1.37493496   2.18294623  -0.55666578
N    0.49504630   2.64575309  -1.12789018
