18
Energy:   -141.19195574
O    0.33326804   1.07420390  -1.98494711
H   -0.13549733   1.36167681  -2.76843304
H    0.39170080   0.12310741  -2.07568259
O    1.02161887  -1.57897262   0.67093124
H    1.13762450  -0.63232811   0.75240948
H    0.26005795  -1.77527454   1.21657066
O    0.52670861  -1.63954048  -1.99526024
H    0.69460642  -1.70936078  -1.05549042
H    0.90268657  -2.43784537  -2.36618034
O    1.11712904   1.16665711   0.62684597
H    1.96708962   1.60687583   0.62936480
H    0.81857998   1.22645686  -0.28063642
C   -2.13673944   1.21126739   1.84142930
H   -2.95449836   1.44397745   2.49105732
H   -2.42362796   1.39480507   0.82707828
H   -1.29686107   1.82535300   2.09123379
C   -1.75566925  -0.27164505   2.00682635
N   -1.47194516  -1.37574077   2.12997197
