18
Energy:   -142.23829783
O   -2.03319794  -1.98498435  -0.67752859
H   -2.71275630  -2.31752256  -1.26391637
H   -1.87951009  -1.08753759  -0.97282711
O   -1.26247429   0.53864286  -1.29454150
H   -0.37507864   0.38754309  -1.62000988
H   -1.14218600   0.79719064  -0.38080433
O   -0.62279911   0.81293499   1.37102018
H   -1.25003652   0.77981052   2.09331365
H   -0.28923851  -0.08157792   1.30162410
O    0.24677264  -1.69460112   0.82785380
H   -0.54934757  -1.99072354   0.38656480
H    0.85878531  -1.50462710   0.11681076
C    2.63798668   2.01387387   0.28965838
H    3.54747916   1.70169704   0.75898687
H    1.92313225   2.28119459   1.03960629
H    2.83169809   2.85989452  -0.33614034
C    2.07905275   0.86079376  -0.56450737
N    1.66290103   0.00227320  -1.20047259
