18
Energy:   -141.20154478
O   -1.01742002   0.95397766   1.78304412
H   -1.22464128   1.79486330   2.19072358
H   -0.07275142   0.85582134   1.90220123
O   -1.34194056  -1.15328178   0.07132624
H   -1.31905429  -0.39301939   0.65245374
H   -1.91472125  -1.77810469   0.51601767
O    1.39078646  -1.45500427   0.06466128
H    1.65246846  -1.17646183  -0.81293116
H    0.43428493  -1.47581513   0.03460156
O    1.66133196   0.49107873   1.93614598
H    1.65302631  -0.20046911   1.27438738
H    2.41758007   0.28752723   2.48649807
C   -0.97968198   0.95956766  -2.69928390
H   -1.00301734   1.81107023  -2.05175087
H   -1.73351037   0.26219159  -2.39877022
H   -1.16369734   1.27190448  -3.70600290
C    0.40369986   0.28820799  -2.61483948
N    1.43369053  -0.21164980  -2.55196678
