18
Energy:   -141.19352855
O   -0.95124084  -1.35230538  -0.51754900
H   -1.31297413  -2.23023985  -0.39666918
H   -0.01602241  -1.45144514  -0.33930859
O   -1.26190804   0.59866447   1.39469698
H   -1.35134397   1.40393815   0.88502320
H   -1.28695252  -0.10190256   0.74292213
O    1.19292578   0.07907177   2.39842891
H    0.31801579   0.33388231   2.10545120
H    1.17961762   0.22028661   3.34506142
O    1.66228288  -1.52928230   0.25121068
H    1.57298526  -0.98407032   1.03287664
H    2.60560869  -1.66202893   0.15768741
C   -0.33869920   1.21575186  -2.86283609
H   -0.73045813   0.22035077  -2.83830459
H    0.73062437   1.17848315  -2.85527004
H   -0.67212641   1.70845759  -3.75219904
C   -0.83400071   1.99289786  -1.62901256
N   -1.20277521   2.57151838  -0.71037486
