18
Energy:   -141.25593512
O   -0.97405247   0.97595256   1.15729835
H   -1.56833929   1.07210323   1.90148251
H   -0.32895312   0.33090776   1.44711877
O   -0.11897973  -2.52407400  -0.33053419
H   -0.69049475  -1.84217743  -0.68354905
H   -0.49809830  -3.34339766  -0.64866892
O    0.77262430  -1.04008667   1.76754119
H    1.42060934  -1.52903145   2.27476917
H    0.53258082  -1.62982892   1.05282792
O   -1.66805193  -0.42402750  -1.10236068
H   -1.54847365   0.11917511  -0.32334605
H   -1.25027200   0.07138408  -1.80681731
C    1.60780985   2.35049147  -0.65065933
H    1.92943389   1.57024673   0.00712202
H    1.02252168   3.05965860  -0.10346757
H    2.46274881   2.84007178  -1.06813939
C    0.75681460   1.74815937  -1.78406266
N    0.12320995   1.29969573  -2.62793296
