18
Energy:   -141.23224569
O   -1.70594854  -0.57353524   1.82345645
H   -1.73849846   0.12476872   1.16958802
H   -2.54349376  -0.51151860   2.28269907
O   -1.63614632   1.26680802  -0.17883854
H   -1.01124687   1.96217422   0.02658392
H   -1.18347196   0.71912739  -0.82021495
O   -0.16034604  -0.48259415  -1.70776550
H   -0.00836460  -1.09578600  -0.98864852
H   -0.55815431  -1.01469693  -2.39685697
O    0.09673163  -2.10889492   0.48771209
H   -0.53972078  -1.62903456   1.01770664
H    0.52388145  -2.70282633   1.10498055
C    2.68084279   0.98673584  -0.54562959
H    2.51174315   0.04348577  -0.06962035
H    3.65365893   1.34831900  -0.28527318
H    2.61705576   0.86714268  -1.60700972
C    1.61589556   1.99602791  -0.07785088
N    0.82299395   2.74749174   0.27043164
