18
Energy:   -141.19996048
O   -0.90691721   1.87287183   0.77395657
H   -0.70612656   2.80144278   0.89087940
H   -0.36234506   1.42611764   1.42209522
O    0.61748270   0.40748894   2.48390586
H    0.52012069  -0.41196750   1.99888665
H    0.80895756   0.13408175   3.38102220
O    0.16633078  -1.79185289   0.95729283
H   -0.53182906  -1.42816097   0.41274450
H    0.87948147  -1.97172807   0.34468132
O   -1.64706337  -0.39262812  -0.56968751
H   -1.43435707   0.44924850  -0.16690764
H   -2.59525031  -0.47477365  -0.46758217
C    0.95621938   0.25236563  -2.83343091
H    1.03360726   1.19341926  -2.33011256
H   -0.07285118   0.03885883  -3.03424853
H    1.49803992   0.29522567  -3.75511014
C    1.54611552  -0.85644631  -1.94227514
N    1.98532002  -1.68200721  -1.27876917
