18
Energy:   -141.20127202
O    0.68165928  -1.12772462   2.22476160
H    1.18913415  -0.99962535   1.42333058
H    1.23582342  -1.68261818   2.77360319
O   -1.73895132  -0.80956362   1.02786837
H   -2.38728649  -0.54342409   1.67983701
H   -0.93229436  -0.93314080   1.52813338
O    1.90715032  -0.76794169  -0.17474485
H    2.16230671   0.14730855  -0.29069346
H    1.12835788  -0.87109535  -0.72162098
O   -0.53158941  -0.91284413  -1.43713511
H   -1.03029364  -0.86326042  -0.62161847
H   -0.84129214  -1.71404994  -1.85949198
C   -0.69093055   2.54150663  -1.35127237
H   -0.93091884   1.95009206  -2.21007071
H   -0.82034734   3.57776265  -1.58434717
H   -1.33807984   2.27440232  -0.54210479
C    0.77215044   2.28569759  -0.94438695
N    1.86148075   2.09523613  -0.64144226
