18
Energy:   -141.22485846
O   -0.65224704   0.44321950   2.48194384
H    0.20125712   0.24791550   2.09513788
H   -0.51854309   0.33811594   3.42391429
O   -2.11063014  -0.43499509   0.36022223
H   -2.99304221  -0.06591672   0.39712679
H   -1.67524007  -0.09459154   1.14175454
O    0.12728838  -1.63482161  -0.65678665
H   -0.01258171  -2.57919852  -0.58735708
H   -0.70292018  -1.24815185  -0.37844856
O    1.62827136  -0.27732901   1.20470520
H    1.20808377  -0.83460133   0.54963131
H    2.05188453   0.41382229   0.69569281
C    0.37949242   1.18492823  -2.72626190
H    0.31277011   0.13542145  -2.92370516
H    0.63043081   1.70236095  -3.62858800
H   -0.56177409   1.53979548  -2.36158989
C    1.46908106   1.43997401  -1.66826935
N    2.28032934   1.62986718  -0.88054581
