18
Energy:   -141.20624710
O   -1.02290813  -0.55952277   2.30425057
H   -1.70913906  -0.54686962   2.97145283
H   -1.39841093  -0.08175102   1.56468066
O    1.55535386  -0.19856037   1.50936491
H    0.68599249  -0.38321134   1.86481769
H    2.14492520  -0.75893119   2.01396576
O    0.74020796   1.60440125  -0.41231307
H    1.11015753   0.98848191   0.22015237
H    1.08207252   2.45748651  -0.14472008
O   -1.84819868   0.86921124   0.14743214
H   -2.09511433   0.32741921  -0.60205162
H   -1.00076493   1.24242858  -0.09504819
C    0.90643055  -1.16703336  -2.57303461
H    1.07333308  -1.86811293  -3.36393989
H    1.36122451  -1.52822097  -1.67436612
H    1.33672352  -0.22337209  -2.83618941
C   -0.60765056  -0.99632921  -2.34938649
N   -1.73495277  -0.86923221  -2.18287029
