18
Energy:   -141.19537451
O    0.77188539  -2.52944525  -0.08847531
H    0.59396677  -1.90105803  -0.78826550
H    1.00721169  -3.33704633  -0.54523988
O    1.10008001  -0.64968859   1.86123289
H    1.00229727  -1.37230767   1.24115866
H    0.97275970  -1.05186530   2.72046236
O    1.13377181   1.30502545  -0.05540065
H    1.11678220   0.69434454   0.68149285
H    2.03241505   1.63417494  -0.07364323
O    0.33582340  -0.56550581  -1.90545862
H   -0.59240886  -0.37241109  -2.03710643
H    0.65645658   0.15553876  -1.36368290
C   -2.21784884   2.07814959   0.49788722
H   -3.09673122   2.68727495   0.53573214
H   -1.35499106   2.70285421   0.39729065
H   -2.14110637   1.50636184   1.39903563
C   -2.30523735   1.12530196  -0.70877953
N   -2.37030206   0.41586359  -1.60719778
