18
Energy:   -141.31684837
O   -1.90284463  -1.74622193   0.26489269
H   -1.09996491  -1.80448952  -0.25300777
H   -2.29195309  -2.61859914   0.20337467
O    1.58164028  -0.10181662   0.90444912
H    2.07116284  -0.43304775   1.65736708
H    0.72275570   0.12815434   1.25893816
O   -0.98852317   0.31725926   1.77908049
H   -1.38112115  -0.40863001   1.29412333
H   -1.72960995   0.75412171   2.19881069
O    0.47941566  -1.73973770  -1.02405970
H    0.99345804  -1.24384921  -0.38681024
H    0.44960362  -1.17739891  -1.79808694
C    0.73112928   2.62103380  -0.99837555
H    1.74527418   2.63379563  -0.65742476
H    0.07662399   2.47108956  -0.16528573
H    0.50132592   3.55405376  -1.46908061
C    0.54426182   1.47562062  -2.01065475
N    0.40513050   0.62280844  -2.76434264
