18
Energy:   -141.19117497
O    0.90414675  -2.43859865  -0.60958342
H    0.03522761  -2.12251048  -0.36199576
H    0.80241000  -3.38754432  -0.68295650
O   -0.06979927   0.57734661   1.61777388
H    0.77429757   0.35543333   1.22472572
H    0.07021426   0.47732485   2.55938086
O   -1.43239498  -1.36318335   0.23010715
H   -1.05478713  -0.68995522   0.79615312
H   -1.89173340  -0.87327385  -0.45196965
O    2.22761142  -0.30227933   0.43528166
H    1.84505345  -1.08936560   0.04749765
H    3.06694702  -0.19760689  -0.01281575
C   -0.88255737   2.86733971  -0.93944172
H   -1.42358699   3.74586714  -1.22294953
H    0.06143451   2.85179139  -1.44296597
H   -0.72243857   2.87294924   0.11849476
C   -1.69297461   1.61721913  -1.32934227
N   -2.29636708   0.68644754  -1.61964095
