18
Energy:   -141.22946505
O    1.34028381  -1.04889964   0.58642787
H    0.42977947  -1.32947335   0.49427535
H    1.85246998  -1.84414282   0.43984869
O   -1.26149565  -1.76710441   0.04421555
H   -1.34241255  -1.28305734  -0.77760118
H   -2.11187793  -2.19169138   0.15738674
O    1.14147169   0.72613607  -1.51123915
H    1.34344417   0.11519712  -0.80258368
H    1.05814763   1.57606767  -1.07891378
O   -1.25602035  -0.29571544  -2.24942612
H   -1.36621054  -0.19441127  -3.19485060
H   -0.41370880   0.11778193  -2.06031498
C   -0.00600510   1.35593899   2.61892627
H    0.87649633   0.87633465   2.98780440
H   -0.73349732   0.61482918   2.36122409
H   -0.40480883   1.99942762   3.37508568
C    0.34487739   2.18671373   1.37060947
N    0.60612535   2.80526328   0.44118088
