18
Energy:   -141.24259188
O   -1.35730138   0.73778677   0.93214415
H   -1.73195716   1.48440782   1.39950045
H   -0.46968213   0.65702492   1.28120208
O   -0.57979032   1.03214427  -1.69026059
H   -0.97240622   0.98001609  -0.81884377
H   -0.70552832   0.15939724  -2.06273127
O    1.30260578   0.59657365   1.64930957
H    2.09474096   0.46617463   2.17060585
H    1.62290580   0.87821799   0.79238705
O    1.99404416   1.36755877  -0.87223937
H    1.11777161   1.27547928  -1.24627098
H    2.48011218   1.87545687  -1.52186175
C   -1.08668143  -2.71616147   0.49179623
H   -1.86745054  -2.17382860   0.98289179
H   -0.16313428  -2.55816841   1.00851466
H   -1.32208383  -3.75994452   0.49311734
C   -0.95337136  -2.22183906  -0.96060653
N   -0.85411596  -1.85379356  -2.04198641
