18
Energy:   -141.39163246
O    0.01727651  -2.53597639   0.10772937
H   -0.66456291  -1.93544409   0.40887354
H   -0.28854534  -3.40159350   0.37867562
O   -0.92711922   0.99953851  -1.19719382
H   -1.35346726   1.15625061  -2.03974976
H   -0.16847078   0.45586248  -1.40956326
O    1.12684287  -0.76079645  -1.63622650
H    1.91724405  -1.13376798  -2.02659819
H    0.80250258  -1.44505732  -1.05071623
O   -1.81761589  -0.66077450   0.81097749
H   -1.53069397  -0.20456677   1.60204144
H   -1.65554635  -0.03781058   0.10254170
C    1.33751112   2.35328360   0.98978332
H    0.81460769   3.18990989   0.57562316
H    1.65487180   1.70461701   0.20021829
H    2.19236692   2.69984639   1.53201473
C    0.40298407   1.58396945   1.94184156
N   -0.29281381   1.01118009   2.65069220
