18
Energy:   -141.33506787
O    0.46205510  -1.94112854   0.79010095
H    0.96107656  -2.75527224   0.85627843
H    0.08127684  -1.96372743  -0.08781081
O   -0.67224888  -1.76004275  -1.68736622
H   -1.12790799  -2.10920219  -2.45332595
H   -1.07092686  -0.90215655  -1.54135601
O   -0.89884490   0.32308299   1.55491150
H   -0.38766330  -0.46852970   1.38676103
H   -1.53655691   0.06047439   2.21868251
O   -1.69310379   0.67330828  -1.04546158
H   -1.52148929   0.63082631  -0.10473017
H   -1.09378799   1.34608932  -1.36859948
C    2.19304912   1.83011830   0.72950962
H    1.59975608   1.79072899   1.61908932
H    2.94353331   2.58553480   0.83447857
H    2.66169860   0.88135143   0.57105397
C    1.29230486   2.16509003  -0.47384141
N    0.62165982   2.41449172  -1.36979095
