40
Energy:  -1231.62089439
O   -2.21955073   1.91734398  -0.78085213
H   -1.65466715   2.67664514  -0.92437962
H   -1.65451870   1.27585662  -0.35019609
O    0.25571435  -3.55442230  -0.90308467
H    0.31053399  -3.21582068  -0.00945410
H    0.77765325  -2.94374519  -1.42355089
O    1.50435859  -0.87875290   3.46163436
H    1.04776911  -1.47512359   2.86825429
H    1.96186830  -0.26843783   2.88333320
O    0.11933611   0.28753370  -3.35097377
H    0.42036404   0.53232872  -2.47593695
H   -0.80953977   0.08611962  -3.23759912
O   -0.73292699   0.62305083   3.01268183
H   -0.78132711   0.45306526   2.07194054
H    0.03745096   0.13605444   3.30522956
O    1.78116890  -1.70017953  -2.24747646
H    1.24983254  -1.16834913  -2.83998803
H    1.69674308  -1.26901676  -1.39706315
O   -2.52124709  -0.14118936  -2.58919143
H   -2.44633055   0.65665103  -2.06567441
H   -2.33855900  -0.85056469  -1.97303921
O    2.61225127   0.90237141   1.72230481
H    2.03041770   1.65967129   1.78710018
H    2.21715248   0.35343624   1.04495780
O    0.13937036  -2.35832235   1.58132863
H    0.54958893  -1.67023649   1.05741030
H   -0.79756952  -2.16757918   1.53669056
O    0.47010558   2.58486966   1.53434903
H   -0.01449864   2.09191041   2.19645307
H    0.51377283   1.99603734   0.78095570
O   -1.93070475  -1.91239998  -0.55824101
H   -1.45610440  -1.14354699  -0.24224822
H   -1.24501280  -2.52744328  -0.81858719
O   -0.19565858   3.78165682  -0.91848738
H    0.18572699   2.95453952  -1.21285768
H   -0.13141327   3.74930766   0.03600616
C    0.29028736   0.04743482  -0.42671248
O    0.73254817   1.28572968  -0.81140665
O   -0.72212724   0.18745348   0.48570751
O    1.32408391  -0.65029316   0.14093226
