40
Energy:  -1233.10053220
O   -1.89500552   0.94910240   2.46772513
H   -2.25503939   0.06819237   2.36474464
H   -1.48413815   1.14050718   1.62464502
O   -3.19639761   0.13625819  -0.92772616
H   -2.46669615   0.60988623  -0.52842162
H   -2.80176571  -0.66336630  -1.27571781
O   -1.46483752  -1.70312612  -1.90415035
H   -1.02156446  -1.39548987  -1.11351720
H   -1.34329106  -0.99616619  -2.53792157
O    0.59080854  -3.40648965  -2.48269976
H   -0.23141551  -2.93478153  -2.34976777
H    1.24603350  -2.88062693  -2.02402722
O   -2.72350285  -1.40302460   1.36417316
H   -1.81569123  -1.28858386   1.08308023
H   -3.23596327  -0.90024894   0.73105958
O    0.67500762   1.05916949   3.39696506
H   -0.25136583   1.01690281   3.15973604
H    1.08538497   0.36059421   2.88724469
O    3.59482617   0.26062229   0.14816728
H    3.15502353  -0.43187720  -0.34503647
H    3.14743115   1.06456660  -0.11592188
O    2.15859088   2.38592987  -0.77879510
H    1.77510267   2.77322133   0.00808098
H    1.54224491   1.69913177  -1.03307418
O    0.59877002   3.01458771   1.40112489
H    0.10721216   2.47163434   0.78484219
H    0.75600128   2.44262240   2.15236777
O    1.73274498  -0.94882835   1.83079787
H    2.41067945  -0.43891866   1.38736940
H    0.94618592  -0.81301622   1.30248758
O    2.06059596  -1.67342335  -0.96237099
H    1.44273702  -0.96288992  -1.13448844
H    1.85209319  -1.96286554  -0.07412459
O   -1.39995134   0.80711323  -3.00740859
H   -0.66139486   0.75755577  -2.40052291
H   -2.17139196   0.85755761  -2.44299156
C    0.00176491   0.44725707  -0.05221374
O   -1.04519591   1.33051279  -0.02593136
O    0.51551154   0.38594464  -1.32083661
O   -0.43944891  -0.79467905   0.32289322
