40
Energy:  -1230.88525058
O    3.37706846  -0.33098127   1.31689390
H    2.44469440  -0.16637764   1.45766354
H    3.60377286   0.20656907   0.55802857
O    3.53181997   0.86166504  -1.17623806
H    3.10286705   0.01224944  -1.27979663
H    2.81335878   1.47718034  -1.03068296
O   -2.88506827  -1.82327931   0.63945068
H   -2.41274813  -0.99593458   0.73243588
H   -2.23728531  -2.49477215   0.85324137
O   -1.47751644   2.46647406  -0.40632003
H   -1.44875461   1.61559608   0.03118571
H   -0.62342436   2.54700520  -0.83090606
O   -2.79140274   1.15670267  -2.44012784
H   -2.40274713   1.67851573  -1.73806674
H   -2.45708323   0.27166969  -2.29459797
O   -1.59151549   1.30748313   3.23109570
H   -0.97746059   2.02248337   3.06393386
H   -1.51625147   0.74188371   2.46254872
O    1.27917149   2.36403756  -0.73867718
H    1.16344107   2.69563790   0.15176065
H    0.90892654   1.48162955  -0.71616866
O    0.18002813  -3.26650875  -1.52885335
H   -0.49917616  -2.60915546  -1.67985014
H    0.96603709  -2.75798643  -1.32928679
O    0.19353864   2.84642542   1.75405993
H    0.42063385   1.91710588   1.72204713
H   -0.55360108   2.93143839   1.16178729
O   -1.70741311  -1.28724556  -1.76078716
H   -2.28643352  -1.52672228  -1.03717255
H   -1.02793845  -0.74801942  -1.35608826
O    2.25021899  -1.55288531  -0.89822981
H    2.68350504  -1.49913823  -0.04640454
H    1.47631105  -0.99664941  -0.80934808
O   -0.51863373  -3.13687697   1.12040030
H   -0.26073210  -3.31230457   0.21544519
H   -0.36381199  -2.19946066   1.23664456
C   -0.07063164  -0.24944710   0.57626550
O    0.83610056   0.34474692   1.41395790
O    0.25598930   0.03280801  -0.72402278
O   -1.32510472   0.23086414   0.84715034
