40
Energy:  -1231.37872528
O   -0.38900909   2.48135205   2.46850150
H   -1.09654552   1.95551384   2.09551594
H    0.37227368   1.90120243   2.45816677
O   -2.96690044  -0.08125465  -1.83272155
H   -2.11928326   0.28644972  -1.58258066
H   -3.20650923  -0.65090843  -1.10175367
O   -3.31648063  -1.53238231   0.45752321
H   -2.99804870  -0.71224250   0.83462218
H   -2.52321052  -2.00188427   0.19960408
O   -0.97163449  -2.63010562  -0.38469023
H   -0.60200318  -1.83323080  -0.00443364
H   -0.95690070  -2.47457418  -1.32905496
O   -2.25945702   0.87689236   1.24716081
H   -1.46201742   0.41010773   0.99729278
H   -2.48712660   1.39375910   0.47434311
O    1.37994708  -3.82834688   0.43353582
H    0.53119769  -3.50024593   0.13654072
H    1.92701711  -3.04637447   0.50746394
O    3.50679724   1.23596949   0.29216474
H    3.31938967   0.29850244   0.24456444
H    2.95341208   1.62599268  -0.38450256
O    1.88842076   2.27542986  -1.70113450
H    1.29102125   2.86346830  -1.23901279
H    1.45991267   1.42030584  -1.66404576
O   -0.28070630   3.24314061  -0.19923706
H   -0.40910022   2.35885490  -0.54243619
H   -0.22471995   3.12668957   0.74920193
O    1.63458617   0.63219183   2.25458391
H    2.27529071   1.03418276   1.66795556
H    0.97478930   0.25920711   1.66996238
O    2.69804165  -1.40257239   0.59652072
H    2.37608095  -1.04501548   1.42400257
H    2.03265751  -1.15677038  -0.04619007
O   -0.87171171  -1.52523052  -2.87395859
H   -1.69099751  -1.06612445  -2.68896063
H   -0.22068179  -1.08350691  -2.32873190
C    0.32462949   0.25479623  -0.37369335
O    1.00227406  -0.57597972  -1.22666904
O   -0.13839754  -0.46711429   0.69474006
O   -0.73293370   0.82299254  -1.03436971
