40
Energy:  -1233.46112360
O   -2.61880651   0.45545653   2.48886317
H   -2.67569939  -0.29969290   1.90341942
H   -1.68530714   0.66475638   2.52055472
O   -2.97153336   0.02864114  -1.46560557
H   -3.07137279   0.81741554  -0.93259629
H   -2.02697942  -0.12380603  -1.49405837
O   -2.94522769  -1.65990026   0.70999987
H   -2.08435854  -2.07408538   0.65010950
H   -2.98792066  -1.08366815  -0.05312903
O    1.87116404  -3.24602741  -1.23851027
H    0.98223766  -3.18659183  -0.88849721
H    2.04927910  -2.37391840  -1.59055111
O   -2.68569856   2.09804536   0.28744564
H   -1.81442952   1.88263394  -0.04530054
H   -2.75801224   1.60735759   1.10612023
O    2.06104701  -2.28021979   1.33807047
H    1.66789737  -1.43387238   1.12508858
H    2.22764670  -2.68809424   0.48829707
O    2.75519208   1.43051019  -0.34499579
H    2.34921041   1.85527057  -1.10063416
H    2.05901367   0.89093100   0.02973314
O    1.21431440   1.88900520  -2.58246036
H    0.57070002   1.77383257  -1.88336977
H    1.55099038   1.00806138  -2.74622578
O    0.97713619   3.17343938   0.96462444
H    1.84086419   2.78865008   0.81581929
H    0.37780917   2.61786427   0.46625182
O    0.05762432   1.12921379   2.60677900
H    0.26638704   2.02216502   2.33239226
H    0.22862947   0.59388057   1.83191938
O    2.16865776  -0.65685934  -2.08515049
H    2.66684978  -0.12173999  -1.46734482
H    1.26650554  -0.61194593  -1.76839191
O   -0.42492552  -2.77761948   0.22748124
H   -0.40479017  -1.92495679  -0.20702163
H    0.24253814  -2.71464527   0.91067840
C   -0.26801641   0.14152321  -0.19489789
O   -0.33703309  -0.61389288  -1.33574916
O   -0.29114710   1.47088904  -0.52557934
O    0.89486190  -0.14365944   0.47155923
