40
Energy:  -1232.35995206
O   -1.81032175  -0.41902139   2.65465554
H   -2.50943308  -0.09018195   2.08955395
H   -1.15558766  -0.76645972   2.04898094
O   -1.15236286   2.18663012  -2.25787905
H   -1.32454594   1.40230554  -2.77885870
H   -0.99788852   1.85745406  -1.37243416
O   -2.31789829  -2.33454167  -0.71260410
H   -1.62191914  -2.06191679  -0.11467388
H   -2.23720491  -1.74269955  -1.46056355
O    0.10344389  -2.88620178  -2.03243297
H    0.51577764  -2.14704394  -1.58537769
H   -0.71163590  -3.03263042  -1.55239607
O   -3.26629490   0.06233969   0.37969822
H   -3.27638291  -0.86197904   0.13117263
H   -2.37149835   0.34986697   0.19831728
O    1.57157418  -1.10393216   2.73258224
H    1.06451698  -1.27051928   1.93799204
H    1.23511940  -0.27041395   3.06163761
O    3.10858036   1.93357486  -0.21818340
H    3.18844838   1.04127037   0.11893032
H    2.56027622   1.84731326  -0.99802528
O    1.46168454   1.40029055  -2.32640826
H    0.62210583   1.85853922  -2.36311770
H    1.28188039   0.61042022  -1.81649927
O    0.24603012   1.23743142   3.40944428
H    0.43968679   1.68881965   2.58787407
H   -0.52367269   0.70302290   3.21400384
O    0.66295030   2.41451848   0.97001228
H    0.20222283   1.66253182   0.59788581
H    1.55766372   2.33556562   0.63912531
O    3.16429273  -0.71012999   0.51713547
H    2.38694147  -0.75113930  -0.03988796
H    2.82896775  -0.82665218   1.40607393
O   -1.37195763  -0.59877956  -2.57713360
H   -0.77134992  -1.31772554  -2.77365054
H   -1.06340368  -0.25009883  -1.74080349
C    0.21753926  -0.34579279   0.15167125
O   -0.32258182  -1.46529788   0.72781007
O   -0.78929842   0.49469512  -0.24450642
O    0.96531840  -0.70880317  -0.93774604
