40
Energy:  -1234.60369585
O    2.72212963  -1.35978117   2.25263056
H    2.34042679  -0.98609085   1.45834451
H    2.06188208  -1.21044280   2.92938980
O   -3.90731806  -0.03704653   1.11064997
H   -3.18154122   0.37893684   1.57587858
H   -3.51155343  -0.38713637   0.31250255
O    2.75363655   0.00004693  -1.87652578
H    2.38049803   0.05966565  -0.99706850
H    2.27890700  -0.72083636  -2.29027811
O   -1.63732757   1.12797249   2.19273233
H   -1.17203065   0.55221944   2.79955936
H   -1.28587946   0.90302497   1.33127154
O    1.32029643   3.66081158  -0.18364932
H    1.26344264   3.13016701   0.61096746
H    1.07556672   3.06263479  -0.88971147
O    0.99684842   1.97657675   1.97512772
H    0.04159436   2.01052301   2.02581482
H    1.17935028   1.26992267   1.35580152
O   -0.99452332  -0.09903372  -3.30088548
H   -0.45284198   0.59093304  -2.91779405
H   -1.59141737  -0.35398061  -2.59735763
O   -2.48169218  -0.88175530  -1.11943837
H   -1.80700123  -0.35121540  -0.69570334
H   -2.19267607  -1.78514605  -0.99064909
O    0.63061021   1.71730459  -2.02407688
H    1.47437238   1.26942773  -2.08493389
H    0.20699445   1.32818746  -1.25898251
O    0.79533461  -1.93159318  -2.36380935
H    0.82373197  -1.58449789  -1.47220950
H    0.18223466  -1.35904429  -2.82481701
O    0.40230852  -0.32016769   3.38131980
H    0.20113256  -0.75672407   2.55356464
H    0.81193142   0.50571383   3.12371420
O   -1.04776625  -3.18295001  -0.65734506
H   -0.45613261  -2.99701444  -1.38647430
H   -0.78015534  -2.57326461   0.03033216
C    0.24426023  -0.46425826   0.05658112
O   -0.20397053  -1.29692291   1.04790204
O    1.48687262   0.00974129   0.38572798
O   -0.62365927   0.58685922  -0.08359018
