40
Energy:  -1233.16917083
O   -1.95349002  -0.26994762   2.34158233
H   -1.30231786  -0.89854281   2.65315056
H   -1.53141058   0.16572249   1.60112817
O   -3.37394185   1.19438169  -0.48122930
H   -2.46591009   1.31913513  -0.20528231
H   -3.57913790   0.29349000  -0.23118814
O   -1.56950202  -1.68234409  -1.64290423
H   -0.97091115  -1.38720906  -0.95674380
H   -1.74171839  -0.89850342  -2.16460066
O    2.18373354  -1.85657684  -0.57034600
H    2.02325033  -1.84779157  -1.51395598
H    1.41843461  -1.42305665  -0.19270907
O   -3.44874367  -1.42018712   0.33584431
H   -2.79308698  -1.57766965  -0.34352701
H   -2.94830204  -1.08259431   1.07869094
O    0.29024073  -1.84574618   2.67120109
H    0.09607546  -1.65603717   1.75330012
H    0.98087060  -1.22507770   2.90365080
O    3.69013679   0.29552633   0.21028665
H    3.20370656  -0.47691419  -0.07772920
H    3.22665694   1.03287228  -0.18687732
O    2.24152761   2.38667459  -0.83694953
H    1.90402510   2.77471146  -0.02963838
H    1.59202100   1.72509405  -1.07503397
O    0.91940581   2.92348793   1.53272171
H    0.26846792   2.45417024   1.01094338
H    1.39531483   2.23556441   1.99802127
O    1.93027340   0.43224755   2.31603809
H    1.17615230   0.32881369   1.73566351
H    2.68972096   0.36044248   1.73783806
O    0.91824052  -1.40605573  -2.96117732
H    0.12753990  -1.89289862  -2.72878028
H    0.87978184  -0.61507803  -2.42349055
O   -1.78107818   0.83348529  -2.65360287
H   -0.96370554   0.79288630  -2.15712977
H   -2.45082766   1.02735591  -1.99779675
C    0.18876118   0.41399726   0.01055512
O   -0.88401988   1.19487773   0.35161944
O    0.43887455   0.54242286  -1.33035836
O   -0.08997192  -0.89603024   0.30023772
