40
Energy:  -1231.21381680
O   -2.08969002  -1.95210974   0.94657396
H   -1.40575276  -1.28473413   0.89115314
H   -2.38645206  -2.06715649   0.04384013
O   -2.90308977   0.70025093  -1.30798595
H   -1.94646069   0.68639173  -1.27797616
H   -3.17076198   0.78138244  -0.39256195
O    0.07818465  -2.03681224  -1.92046761
H    0.32384300  -2.50087481  -1.12013658
H   -0.00448531  -1.12187545  -1.65160295
O    2.61916330  -1.37045699  -2.72953715
H    1.72980180  -1.67535626  -2.54980288
H    2.74076278  -0.62506832  -2.14145455
O   -3.05273134   0.63388338   1.45213663
H   -2.18782659   0.97300797   1.22155882
H   -2.95533572  -0.31759795   1.41433150
O    0.51548538  -0.01852346   3.14661848
H   -0.26363472   0.53737367   3.16011316
H    0.70878284  -0.13826945   2.21681805
O    2.64148482   0.76975035  -1.01690708
H    2.00072235   0.32633747  -0.46099313
H    2.11954390   1.35822636  -1.56234773
O    1.71732781   2.66144791   0.73793275
H    0.88975454   2.18508820   0.80453425
H    2.30559045   2.05819980   0.28376250
O    0.78372223   2.61787472  -1.85114442
H    0.29350433   1.81907930  -1.65660870
H    1.05245577   2.94921118  -0.99427203
O    2.22015357   2.09981194   3.36817529
H    2.12126380   2.41115813   2.46844410
H    1.71680012   1.28616499   3.39725774
O    0.53685982  -2.87992618   0.62622610
H   -0.39227477  -2.86572217   0.85587585
H    0.79420735  -1.95811021   0.61012007
O   -2.64904873  -1.97974872  -1.71915854
H   -1.70714853  -2.05583076  -1.87169501
H   -2.80522972  -1.03811742  -1.64725692
C   -0.30389098   0.17872286   0.18502394
O   -0.55648247   1.35932538   0.83258367
O    0.91993577  -0.30100968   0.57129269
O   -0.30507210   0.39145585  -1.16868337
