40
Energy:  -1231.75451754
O    0.58036504   2.67883020   2.29977250
H    0.36472618   2.29025601   1.45198607
H    0.25566607   2.04810027   2.94240940
O   -3.11469311   1.30769683  -1.10372807
H   -2.33830283   1.68534385  -1.51704720
H   -2.84950527   1.14495001  -0.19850946
O   -0.78111086   2.36354193  -2.10272594
H   -0.47427260   2.04268745  -1.25470793
H   -0.36154048   1.78876116  -2.74289748
O   -0.48370756   0.48056404   3.57060569
H    0.27101116   0.05624996   3.16245244
H   -1.13503144   0.53605268   2.87137035
O   -2.23012951  -1.30647352  -1.08592183
H   -1.41532879  -1.12412345  -0.61786190
H   -2.60439493  -0.44315293  -1.26152025
O   -0.39494981  -2.10482060  -3.01010109
H    0.38207135  -2.24757261  -2.46964589
H   -1.06766227  -1.81840094  -2.39231992
O   -2.21490699   0.56979453   1.40520085
H   -2.31992631  -0.36696587   1.23881954
H   -1.38724679   0.79745529   0.98166688
O    2.83562777   1.60646026   1.17921043
H    2.15603591   2.10758366   1.63005641
H    2.36977382   1.14166919   0.48409805
O    1.64897801  -0.59363903   2.25012368
H    1.04192674  -0.63058712   1.51096508
H    2.24502953   0.12392425   2.03551390
O    0.76484733   0.39990671  -3.34191238
H    1.01491736   0.47603682  -2.42109697
H    0.30868871  -0.43973375  -3.39808242
O    0.88798567  -3.15565749   1.11557144
H    1.52867767  -2.73005212   1.68531320
H    0.36966299  -2.43520949   0.75706323
O    1.81050388  -2.41830222  -1.37245436
H    1.54786354  -2.89460727  -0.58480888
H    1.68805031  -1.49606789  -1.14724155
C    0.24725237   0.16809748  -0.42206350
O    1.59562414   0.13190561  -0.66194284
O   -0.07072978   1.33506677   0.22149599
O   -0.10524636  -0.89793939   0.36348741
