40
Energy:  -1236.73544500
O    0.94144535   2.66642867  -2.34292578
H    0.70750424   2.77269903  -1.42085745
H    1.52424477   1.90722702  -2.35669307
O   -2.33003999  -1.07271254   2.04322782
H   -1.50575425  -1.37556800   2.42409977
H   -2.07450874  -0.64957110   1.22354072
O    0.23202812   2.86126583   0.28702178
H    0.38344865   1.92768572   0.43443908
H   -0.71773879   2.96303535   0.34880862
O    0.22772015  -1.96016776   2.38604609
H    0.33037732  -1.15533024   1.87817808
H   -0.15878733  -2.58405069   1.77154312
O    0.29261013  -1.08038407  -3.03003122
H   -0.29991171  -0.34116719  -3.16680883
H    0.26298999  -1.24034733  -2.08675700
O   -1.30538923   1.11792537  -2.72337423
H   -1.31623643   0.65261721  -1.88695179
H   -0.56734717   1.72322694  -2.65170985
O   -1.38301876  -3.10862229   0.45418614
H   -2.00738694  -2.56227808   0.93157929
H   -0.81834094  -2.48491053  -0.00227246
O    2.26717072  -2.62981364   0.57303824
H    1.60794733  -2.19592974   0.03137309
H    1.94638506  -2.52796820   1.46911632
O    2.49528101   0.40922275  -2.33698671
H    1.75568390  -0.15310507  -2.56723744
H    2.59566104   0.29857535  -1.39151706
O    2.86191514   0.03098829   0.37851587
H    1.92977933   0.19299093   0.52380806
H    2.94486277  -0.92250442   0.39277014
O   -2.42016576   2.35691578   0.73323803
H   -2.15269767   1.60669430   0.20233276
H   -2.07487037   2.16865619   1.60591281
O   -1.23339862   1.27032225   2.92645115
H   -0.54429034   1.07755380   2.29068236
H   -1.85232956   0.54569303   2.83662442
C   -0.12281902  -0.06417112  -0.18749504
O   -1.49051647   0.01203497  -0.21104727
O    0.26747289  -1.34933453  -0.45791325
O    0.33326368   0.30092229   1.05205148
