40
Energy:  -1232.96009175
O   -3.02309939  -0.47430701   0.99566025
H   -3.37928654   0.16127673   0.37485764
H   -2.07883137  -0.45898680   0.83959920
O   -1.70031182   2.77290151   0.42822241
H   -1.09892443   2.18092243  -0.02358044
H   -1.73313002   2.44244113   1.32597002
O   -2.03563283  -2.37494734  -0.79594485
H   -2.61911708  -1.93022561  -0.18112735
H   -1.18532821  -1.95489440  -0.66644801
O    1.66249796  -3.30349444   0.01871492
H    0.90325982  -2.72064483   0.01001849
H    2.33174592  -2.83325496  -0.47849111
O   -3.64606436   1.39571985  -0.88028514
H   -3.01365645   1.96588184  -0.44301248
H   -3.12014313   0.87510902  -1.48741205
O    1.93863028  -1.55116214   2.09984002
H    1.31156519  -0.90962332   1.76599998
H    1.90248581  -2.27183883   1.47091193
O    2.23557991   2.10704782   0.16347911
H    1.48220289   1.61406410   0.48847443
H    2.19731139   2.00460572  -0.78745358
O    1.74470692   1.26307949  -2.38279098
H    0.93678103   1.21514655  -1.87172343
H    2.21457876   0.45809063  -2.16497165
O   -1.66356981   1.25143946   2.72202632
H   -2.32379689   0.68102298   2.32838045
H   -0.84994289   1.02243333   2.27280557
O    3.82598659   0.10456227   1.04561912
H    3.30942466   0.87101995   0.79674518
H    3.20695027  -0.46339617   1.50436642
O    2.65727461  -0.99180565  -1.16112846
H    1.73904765  -0.92196947  -0.89995035
H    3.14332001  -0.59603354  -0.43769487
O   -1.99114997  -0.15079902  -2.38199422
H   -2.08761151  -1.03626455  -2.03145491
H   -1.28703975   0.23750865  -1.86268909
C   -0.29809927   0.03741326   0.20341332
O    0.46156810   0.46590187   1.25994603
O    0.20132871  -1.14866953  -0.26656338
O   -0.26255520   0.97590193  -0.79446235
