61
Energy:   -384.74522873
    C      3.69691846      0.55219460      0.47220634
    H      3.06225156      0.36564654      1.31321641
    H      3.12117922      0.98192442     -0.32073483
    H      4.47491139      1.22981981      0.75584372
    C      4.31927133     -0.77308148     -0.00520357
    N      4.78264133     -1.75980976     -0.36065696
    C     -1.65155516     -3.18088824     -0.65375532
    H     -2.66779304     -3.08648872     -0.97507991
    H     -1.21505315     -4.04908894     -1.10163101
    H     -1.10167373     -2.31208296     -0.94990882
    C     -1.60858701     -3.31762336      0.87956044
    N     -1.57659527     -3.41942888      2.02118373
    C      1.99351212     -2.15588154     -2.53407363
    H      2.76001423     -2.90203204     -2.50889167
    H      1.68392846     -1.92873224     -1.53534432
    H      2.37282553     -1.27047570     -2.99998880
    C      0.78996123     -2.68323125     -3.33717233
    N     -0.10613712     -3.07586709     -3.93511582
    C     -0.01245513     -0.71398826      3.58024689
    H     -0.22273264     -0.75772350      2.53202421
    H     -0.55096872      0.10022367      4.01838059
    H     -0.31332630     -1.63066854      4.04292702
    C      1.49827656     -0.50356403      3.79240581
    N      2.62308497     -0.34689362      3.95036777
    C     -3.28189309     -0.21408885      1.54135985
    H     -2.53348126     -0.26937177      0.77865170
    H     -4.23905129     -0.05345477      1.09086682
    H     -3.29683835     -1.13051228      2.09348649
    C     -2.95994377      0.95325100      2.49281469
    N     -2.72023787      1.82238858      3.20121607
    C      0.66458922      2.86940906      2.16343795
    H      1.49185338      2.53496271      1.57294677
    H     -0.05434939      2.08153471      2.24876302
    H      1.01006778      3.14410210      3.13816221
    C      0.01144938      4.08936146      1.48762399
    N     -0.47484292      4.99767147      0.98444979
    C      1.97527197     -3.08298105      1.40124472
    H      1.42633486     -3.30180177      2.29325690
    H      1.65195622     -2.14310862      1.00500508
    H      3.01977956     -3.03403783      1.62819748
    C      1.72735348     -4.19120010      0.36105870
    N      1.54276689     -5.01631955     -0.41340708
    C     -1.94799561     -0.16332625     -3.35991736
    H     -1.94214352     -0.95258310     -4.08237121
    H     -1.05600529     -0.21227312     -2.77097206
    H     -1.99207860      0.78014125     -3.86273429
    C     -3.17677314     -0.31482766     -2.44408272
    N     -4.09165387     -0.42762736     -1.76220221
    C      1.05502545      3.18517631     -1.95952161
    H      1.19196146      2.23538171     -2.43284912
    H      0.79762943      3.91708389     -2.69637824
    H      0.26841728      3.11384572     -1.23767771
    C      2.36052791      3.60143423     -1.25667549
    N      3.33253383      3.91135717     -0.73337460
    C     -2.74819344      2.82711175     -0.56582174
    H     -2.83642000      3.71736725      0.02117179
    H     -1.90605911      2.25960901     -0.22870232
    H     -3.63767510      2.24156852     -0.46160760
    C     -2.55306802      3.20533425     -2.04584668
    N     -2.40778827      3.48693810     -3.14779251
   Cl      0.17707468      0.17022491     -0.18258537
