61
Energy:   -385.40514548
    C      1.90878243      1.99006593     -2.85347223
    H      1.20693784      1.79564117     -2.06956319
    H      1.65997562      2.91307766     -3.33414218
    H      2.89409515      2.05667785     -2.44162180
    C      1.85889592      0.84557190     -3.88266840
    N      1.82175315     -0.00655592     -4.64895174
    C      2.68723185      2.30411117      1.02272987
    H      2.81169988      1.53794072      0.28625806
    H      1.89306220      2.03449949      1.68718695
    H      3.59483220      2.41555464      1.57837459
    C      2.34483490      3.63447023      0.32666299
    N      2.08990481      4.62498302     -0.19159043
    C      2.73923016     -1.94795884     -1.80840187
    H      1.78935919     -1.48407888     -1.97411456
    H      2.65553668     -2.65748917     -1.01187114
    H      3.05212033     -2.44872850     -2.70071829
    C      3.77646427     -0.87367004     -1.43203902
    N      4.54873221     -0.07381321     -1.15181976
    C     -1.17352860      1.82761020      2.78089882
    H     -1.09100170      2.76810450      3.28444622
    H     -1.46966801      1.99130153      1.76580982
    H     -0.22731609      1.32840676      2.80031284
    C     -2.22792680      0.95688658      3.48919593
    N     -3.01297420      0.30859327      4.01655532
    C     -0.89258190     -3.48386517     -0.83029314
    H     -0.60570949     -2.56844127     -1.30421665
    H     -1.77440155     -3.32205097     -0.24624744
    H     -1.08990499     -4.22512600     -1.57627911
    C      0.24769712     -3.96742212      0.08487702
    N      1.09668669     -4.32745225      0.76626280
    C     -0.78127055     -2.27974675      3.16499488
    H      0.11100432     -2.86643397      3.23240287
    H     -0.99769726     -1.84867532      4.12010534
    H     -0.64214642     -1.50036942      2.44519314
    C     -1.95422353     -3.17749869      2.72930833
    N     -2.82754034     -3.84591581      2.40491989
    C      2.78990892     -1.39670289      2.12074979
    H      1.93776597     -1.77656674      1.59686428
    H      3.36592165     -2.21288706      2.50409275
    H      3.39190909     -0.81882951      1.45100563
    C      2.32089895     -0.50699190      3.28695904
    N      1.97169971      0.15543836      4.15525484
    C     -1.75912580      0.13323665     -3.02740051
    H     -1.93450371      0.76248767     -2.17994200
    H     -1.95198956      0.68228237     -3.92531557
    H     -0.74110569     -0.19617156     -3.02246274
    C     -2.69432269     -1.08853044     -2.96188737
    N     -3.39061928     -1.99819157     -2.91310985
    C     -3.58352402     -0.82831323      0.56470220
    H     -4.11159677     -1.43141090     -0.14403792
    H     -3.92510344     -1.05729100      1.55252393
    H     -2.53516392     -1.03041612      0.49402965
    C     -3.84073031      0.66013316      0.26474841
    N     -4.03223208      1.76834915      0.04141917
    C     -1.25801347      3.61901669     -0.87257707
    H     -2.26634218      3.75552924     -0.54161226
    H     -0.64545820      4.40550248     -0.48384164
    H     -0.89239899      2.67617895     -0.52288845
    C     -1.21460703      3.64757065     -2.41170038
    N     -1.18228896      3.66883037     -3.55764764
   Cl      0.16007631     -0.02045712      0.00358903
