61
Energy:   -385.89820132
    C      2.87820128      2.39879920      0.24816736
    H      2.17268966      1.98089290      0.93555943
    H      3.61358939      2.95815820      0.78781626
    H      3.35699583      1.61078700     -0.29468773
    C      2.14609394      3.32936322     -0.73655059
    N      1.60100674      4.02221043     -1.46971787
    C      1.38090629      0.75684337     -3.38061463
    H      1.41241504      1.81766208     -3.51689028
    H      0.62625046      0.51172101     -2.66276457
    H      1.15317525      0.28406433     -4.31309393
    C      2.74946239      0.26329791     -2.87557298
    N      3.76841462     -0.10416912     -2.49954652
    C      1.08455152     -2.99822589     -1.71893358
    H      0.19883434     -2.93251364     -1.12220319
    H      1.77644858     -2.24076231     -1.41491631
    H      1.53112880     -3.96192507     -1.58950516
    C      0.72076953     -2.79597693     -3.20161966
    N      0.44991729     -2.64539339     -4.30554684
    C     -0.62172053      3.41957968      1.62673966
    H     -0.95990208      4.33862405      1.19558902
    H     -0.53385308      2.67742289      0.86098403
    H      0.33202413      3.57139541      2.08741547
    C     -1.63413650      2.94649182      2.68636308
    N     -2.38792621      2.59425641      3.47530087
    C     -0.70391745     -3.54697226      1.68782492
    H     -1.51118983     -3.80673747      1.03534234
    H     -0.02940366     -4.37377636      1.76735613
    H     -0.18418207     -2.69944054      1.29226932
    C     -1.26087571     -3.20293618      3.08175342
    N     -1.67555645     -2.94678567      4.11959655
    C      0.34917543     -0.07237943      3.80263158
    H      0.39351164     -0.54856290      4.75980648
    H      0.60695197     -0.77817638      3.04085667
    H     -0.64226179      0.29157479      3.63090895
    C      1.34128914      1.10496890      3.76855380
    N      2.07996289      1.98155825      3.74318135
    C      3.40678263     -1.19989595      1.09547343
    H      4.45151824     -1.05713302      1.27726021
    H      2.84154083     -0.56854073      1.74876617
    H      3.18444123     -0.95138127      0.07876116
    C      3.03667472     -2.67172538      1.35688931
    N      2.76111256     -3.76756929      1.55152530
    C     -2.35453513     -0.97072938     -2.63592136
    H     -3.22336497     -0.34633389     -2.64877291
    H     -2.08957320     -1.23388595     -3.63863911
    H     -1.54312324     -0.44347830     -2.17928567
    C     -2.65324382     -2.24949305     -1.83147337
    N     -2.87564603     -3.20159074     -1.23252528
    C     -3.14227515     -0.40627032      1.50571281
    H     -2.75832278     -1.29302109      1.04619804
    H     -3.86106944     -0.67376137      2.25182433
    H     -2.33987892      0.13538114      1.96142444
    C     -3.81520504      0.47540345      0.43734175
    N     -4.31623193      1.13184965     -0.35810906
    C     -1.73893168      2.80594404     -1.89991977
    H     -2.72945692      3.06430719     -1.58845802
    H     -1.08341061      3.63381565     -1.72723561
    H     -1.39884304      1.95913595     -1.34121156
    C     -1.74624953      2.46134802     -3.40085283
    N     -1.75169799      2.20478062     -4.51836571
   Cl      0.16014837     -0.04209430      0.15774043
