61
Energy:   -385.84242109
    C      2.45709121     -0.41807341     -2.45269905
    H      2.37631725     -1.21365336     -1.74176425
    H      2.80822852     -0.80750447     -3.38540754
    H      1.49723982      0.03336275     -2.59337521
    C      3.44944036      0.63772788     -1.93104128
    N      4.18828940      1.42381993     -1.54264336
    C     -1.68175648     -1.65025422     -3.05815730
    H     -2.67911950     -1.26629115     -3.00581651
    H     -1.20679223     -1.54028485     -2.10567906
    H     -1.71189718     -2.68621541     -3.32419308
    C     -0.88651127     -0.87013660     -4.12145479
    N     -0.29441506     -0.28930358     -4.91312811
    C      0.79571284     -3.72123882     -1.01800740
    H      0.64033744     -2.68448333     -0.80377219
    H      1.67412617     -4.06242961     -0.51117611
    H     -0.05025875     -4.28507205     -0.68435600
    C      0.97264573     -3.91083400     -2.53601544
    N      1.10438031     -4.05199623     -3.66624143
    C      1.69998693      3.47876066     -0.18000980
    H      1.47870729      2.46406666     -0.43755902
    H      2.71559915      3.69823106     -0.43547731
    H      1.04726514      4.13383374     -0.71827797
    C      1.49617287      3.68047300      1.33305727
    N      1.34442404      3.83065701      2.45960448
    C     -0.06281245      1.06262931      3.86101363
    H      0.57451083      0.58932654      4.57844217
    H     -0.10966942      2.11230978      4.06318787
    H      0.32891391      0.90593574      2.87770459
    C     -1.47643820      0.45859680      3.95270318
    N     -2.52894683      0.00886715      4.02097022
    C      0.02519173     -2.68392686      2.47019269
    H     -0.87215463     -2.10214320      2.50479712
    H     -0.22243324     -3.72415158      2.50909646
    H      0.55022550     -2.47602589      1.56133857
    C      0.91743996     -2.32333578      3.67246852
    N      1.58175933     -2.05485933      4.56761752
    C      3.22997705      0.04459886      1.73402221
    H      2.71868730     -0.01052354      2.67234225
    H      2.66269589      0.64450636      1.05343264
    H      4.19449764      0.48466885      1.87872024
    C      3.39412454     -1.37285878      1.15482496
    N      3.51633980     -2.42822042      0.72358629
    C     -3.36059604     -1.10191009      0.52798404
    H     -4.40276148     -1.06588728      0.76776251
    H     -3.17193389     -0.49734498     -0.33445825
    H     -2.79137058     -0.73135123      1.35476551
    C     -2.95144772     -2.55720818      0.23420669
    N     -2.64681821     -3.64074375      0.01547610
    C     -2.27272061      2.74174945      1.13384218
    H     -1.37874195      2.37361122      1.59229238
    H     -2.67646077      1.99164693      0.48635536
    H     -2.98909515      2.98218630      1.89140190
    C     -1.94725316      4.00513313      0.31559244
    N     -1.70492786      4.94577971     -0.29363167
    C     -1.06701702      2.42328208     -2.79823929
    H     -1.04153195      3.46935122     -2.57465471
    H     -0.81301947      2.27206596     -3.82659624
    H     -0.36345855      1.90867863     -2.17768481
    C     -2.48186384      1.87600600     -2.53310277
    N     -3.53528160      1.46853409     -2.33569658
   Cl     -0.06082286      0.07786517      0.07151456
