61
Energy:   -386.12933645
    C      2.68889588      2.59950765     -0.59118152
    H      2.09372073      2.06865867      0.12216699
    H      3.20592010      3.39770443     -0.10080722
    H      3.39951087      1.93110218     -1.03068074
    C      1.77861880      3.17673190     -1.69109414
    N      1.10087613      3.60650160     -2.51002909
    C      1.01557657     -0.01533196     -3.49305290
    H      0.88837471      0.99515753     -3.82112432
    H      0.33951758     -0.21691680     -2.68856120
    H      0.81277412     -0.68212492     -4.30493800
    C      2.46355822     -0.21986693     -3.01023348
    N      3.54164637     -0.37215251     -2.65075248
    C      1.74870169     -3.25822267     -1.09673751
    H      1.73058842     -4.18401783     -0.56057018
    H      1.13369126     -2.54214726     -0.59285533
    H      2.75357412     -2.89386114     -1.14543214
    C      1.21366047     -3.48079164     -2.52355003
    N      0.81529796     -3.64650435     -3.58587680
    C     -0.62954487      3.66095850      1.16164220
    H     -1.04728364      4.56558029      0.77170129
    H     -0.94228413      2.83455206      0.55819737
    H      0.43833975      3.72717560      1.14994497
    C     -1.11515902      3.45308334      2.60821291
    N     -1.47672082      3.29831084      3.68525055
    C     -0.90348811     -2.79771476      2.15585942
    H     -1.63093974     -2.08299128      1.83200040
    H      0.06473898     -2.34234374      2.16438203
    H     -1.14816843     -3.13398818      3.14173508
    C     -0.89786802     -3.99779593      1.19078243
    N     -0.89368361     -4.89131090      0.47223874
    C      0.77630974      0.61071410      3.72821632
    H      0.48045224      0.84764975      4.72883114
    H      1.17373165     -0.38232587      3.69946669
    H     -0.07318907      0.67379247      3.08070418
    C      1.85277810      1.60815516      3.26138958
    N      2.65425771      2.35079537      2.91381585
    C      3.62640875     -0.66145150      0.86583328
    H      3.80834332      0.28015113      1.34036935
    H      2.85978708     -0.54689871      0.12822366
    H      4.52488484     -1.00370513      0.39625658
    C      3.17478640     -1.68893826      1.92030386
    N      2.83853303     -2.45394886      2.70540514
    C     -2.16650114     -2.34981191     -1.91675834
    H     -2.58962474     -2.10245676     -2.86790608
    H     -1.80512491     -3.35671272     -1.93813754
    H     -1.35620517     -1.68451881     -1.70297194
    C     -3.24385345     -2.21415843     -0.82473722
    N     -4.04599121     -2.11315826     -0.01167786
    C     -3.39585327      0.63812494      1.87777146
    H     -4.23779746      0.01489380      2.09597571
    H     -2.90074063      0.90073398      2.78925325
    H     -2.71628483      0.10987248      1.24213386
    C     -3.87474651      1.91744215      1.16670975
    N     -4.23130430      2.86995196      0.63729199
    C     -2.20979376      1.78581918     -2.07337548
    H     -2.42479939      1.14673331     -1.24256743
    H     -2.86431083      2.63199582     -2.05120364
    H     -1.19456823      2.11853259     -2.01406274
    C     -2.41949730      1.00890328     -3.38639723
    N     -2.57563112      0.43045409     -4.36400161
   Cl      0.01310215      0.05642788      0.19920815
