61
Energy:   -385.38939184
    C      1.09975590      3.54753949      0.80817852
    H      0.49522122      4.21888348      0.23482413
    H      0.75066918      2.54572981      0.66884106
    H      2.11717383      3.61895353      0.48466674
    C      1.00793640      3.92038088      2.29953980
    N      0.93957261      4.19797824      3.40992607
    C      2.81148229     -0.17967979     -2.44731231
    H      3.45417921     -0.95259885     -2.08065580
    H      2.89297561     -0.12357015     -3.51272755
    H      1.79953845     -0.39966472     -2.17809980
    C      3.22563313      1.16860615     -1.82908574
    N      3.53398725      2.17246633     -1.36878796
    C      1.22168509     -3.39438152     -0.91286548
    H      1.59271834     -4.27095709     -0.42414289
    H      0.18278958     -3.27300994     -0.68733466
    H      1.76363412     -2.53810869     -0.56937286
    C      1.40290635     -3.53984535     -2.43523177
    N      1.53783381     -3.64814979     -3.56870268
    C     -3.24173313      1.69529887      0.21340006
    H     -2.97191886      1.11438949     -0.64371413
    H     -4.30785043      1.74010255      0.29268191
    H     -2.83738630      1.24107730      1.09378946
    C     -2.67760818      3.12063237      0.06579429
    N     -2.25759151      4.18185794     -0.04410492
    C      0.23257678     -2.49139109      2.70191791
    H      0.55494528     -2.61645933      3.71450700
    H     -0.49420209     -1.70760572      2.65321417
    H      1.07220985     -2.23782018      2.08904174
    C     -0.39381967     -3.80440625      2.19672617
    N     -0.86020030     -4.78200571      1.82058796
    C     -0.97458868      1.24677394      3.53692017
    H     -0.77201053      1.25092083      2.48627986
    H     -1.13775996      2.24954794      3.87265600
    H     -1.84813363      0.65960635      3.72941050
    C      0.22594875      0.64264192      4.28880739
    N      1.11980343      0.19283817      4.84862160
    C      3.01904029      0.45620394      1.87761970
    H      3.35478016      1.33288646      1.36419328
    H      3.34329017      0.49348802      2.89662461
    H      1.95050649      0.41086377      1.84477331
    C      3.60703936     -0.79397098      1.19723764
    N      4.04483140     -1.72478304      0.69066228
    C     -1.14915125     -1.27985772     -3.57779070
    H     -0.44775699     -1.00785245     -2.81689688
    H     -0.79626852     -0.93594945     -4.52758014
    H     -1.25539853     -2.34431870     -3.60088710
    C     -2.51360776     -0.63428358     -3.27268013
    N     -3.52950765     -0.15362428     -3.04551144
    C     -3.10083625     -2.23117702      0.22720656
    H     -3.73317295     -3.07847554      0.06247744
    H     -2.07688573     -2.52595775      0.12959129
    H     -3.32428350     -1.47365726     -0.49468972
    C     -3.34287083     -1.67769782      1.64377991
    N     -3.52307658     -1.26560741      2.69848315
    C     -0.29028184      2.47814963     -2.55087346
    H     -1.16186623      1.91637245     -2.28696580
    H     -0.54704444      3.51284460     -2.64240694
    H      0.45328357      2.36110541     -1.79040635
    C      0.26351695      1.96595679     -3.89346997
    N      0.67584533      1.58460594     -4.89309410
   Cl     -0.18049785     -0.15183543     -0.04759040
