61
Energy:   -385.60587181
    C      2.06343250      2.69276068      1.81307667
    H      1.52788268      2.12206070      1.08342738
    H      2.77771913      3.31968488      1.32148767
    H      1.37676226      3.29955752      2.36550827
    C      2.79447826      1.73850429      2.77566009
    N      3.33877506      1.02801703      3.49234720
    C      2.69380779      0.40427171     -2.63098851
    H      2.47743533      0.89606785     -3.55630991
    H      1.78026591      0.08410517     -2.17510067
    H      3.31708359     -0.44555652     -2.81597054
    C      3.42298984      1.38037247     -1.68911759
    N      3.96589903      2.10712386     -0.98785188
    C     -1.94561038     -0.89139047     -3.08557969
    H     -1.49695954     -1.26029806     -2.18695864
    H     -2.44495824     -1.69225117     -3.58973536
    H     -2.65327278     -0.12639248     -2.84290480
    C     -0.85413779     -0.30882276     -4.00258702
    N     -0.04148683      0.12492538     -4.68534066
    C     -0.13923942      2.90664450     -2.10285703
    H      0.09618722      3.94996987     -2.13362474
    H      0.28056963      2.42088536     -2.95883455
    H      0.26805616      2.47521081     -1.21242210
    C     -1.66849289      2.72510762     -2.10816745
    N     -2.80709160      2.58994517     -2.11212130
    C     -1.45770260     -3.32945318      1.40194551
    H     -0.57948356     -2.72923022      1.28634317
    H     -1.18203213     -4.30000199      1.75823175
    H     -2.11692390     -2.86524761      2.10539384
    C     -2.16965631     -3.46457002      0.04309844
    N     -2.69973822     -3.56517065     -0.96862496
    C     -0.22410114     -0.31364483      3.65462154
    H      0.70832125     -0.41581313      3.13979118
    H     -1.02741730     -0.54609143      2.98712560
    H     -0.24699354     -0.98481068      4.48763500
    C     -0.37696994      1.13393015      4.15737177
    N     -0.49078771      2.21171552      4.53169217
    C      3.19699260     -1.45017718      1.02154930
    H      2.33031183     -2.03658444      1.24491259
    H      2.90557751     -0.43583287      0.84524853
    H      3.87574259     -1.48779417      1.84785584
    C      3.88689353     -2.01194729     -0.23545152
    N      4.40055613     -2.43021066     -1.17134576
    C      1.00191589     -3.22184079     -2.01037370
    H      0.04589755     -3.38151038     -2.46362280
    H      1.77223993     -3.39197816     -2.73325214
    H      1.06375898     -2.21500405     -1.65350636
    C      1.18016935     -4.19625930     -0.83124934
    N      1.31288716     -4.92175818      0.04666235
    C     -3.77645113     -0.06916023      0.02869859
    H     -3.82095068     -0.97135602     -0.54485413
    H     -2.87467768      0.45752120     -0.20434737
    H     -4.61975500      0.54560860     -0.20751520
    C     -3.79655755     -0.41350842      1.52957169
    N     -3.81152770     -0.66989129      2.64703993
    C     -2.03098162      2.92734514      1.52379262
    H     -2.88636595      2.82073121      0.88987519
    H     -2.35162324      3.06601792      2.53515700
    H     -1.42684589      2.04661379      1.45874335
    C     -1.20788575      4.14880128      1.07417270
    N     -0.59505346      5.05823090      0.73941023
   Cl     -0.04087723     -0.13817196      0.06316860
