61
Energy:   -384.73925347
    C      1.34213473      3.23092737      1.31697954
    H      0.38569356      3.17751886      0.84025321
    H      1.28675445      3.89488305      2.15423396
    H      1.62805325      2.25615468      1.65308653
    C      2.38689417      3.75514077      0.31434400
    N      3.16476506      4.14544147     -0.43216373
    C      3.62364201      0.30521806     -0.70876819
    H      3.02622200     -0.54304195     -0.97038714
    H      4.55358049      0.26288485     -1.23632995
    H      3.10414624      1.20252042     -0.97310075
    C      3.89275002      0.29556188      0.80750607
    N      4.09311317      0.28837241      1.93644118
    C      1.19527052     -1.21962387     -3.52900400
    H      1.02101369     -0.50821883     -2.74897989
    H      1.72710835     -0.74854658     -4.32908762
    H      1.77456318     -2.03378788     -3.14630820
    C     -0.15312962     -1.74972785     -4.05093008
    N     -1.15707481     -2.14441436     -4.43952778
    C      1.15035617      0.24727636      3.74852422
    H      1.10214737     -0.58561378      4.41850191
    H      2.10111805      0.72846683      3.84551215
    H      1.02538981     -0.09621687      2.74289262
    C      0.03121056      1.24783622      4.09202541
    N     -0.80204421      1.99279852      4.34777766
    C     -1.27718983     -3.09612663     -1.01931342
    H     -1.74668983     -3.48859332     -1.89706044
    H     -0.26666931     -2.82671308     -1.24550740
    H     -1.81094812     -2.23075118     -0.68595699
    C     -1.28764203     -4.16451774      0.08975429
    N     -1.29542417     -4.95998349      0.91550561
    C     -2.51175768     -1.59277933      2.31906950
    H     -3.05690157     -2.40506936      1.88559144
    H     -1.95796320     -1.08726762      1.55574213
    H     -3.19528212     -0.90829705      2.77642869
    C     -1.54044210     -2.13639166      3.38332120
    N     -0.81725350     -2.54113575      4.17570496
    C      1.73039466     -2.83889829      1.57189369
    H      0.82503730     -2.27765397      1.47073516
    H      2.44301076     -2.26867410      2.13039326
    H      1.52637841     -3.75553935      2.08477343
    C      2.30142990     -3.14808977      0.17549855
    N      2.72659160     -3.37829688     -0.86418110
    C     -2.75118971      0.38684317     -2.50560674
    H     -2.85279353      1.44984202     -2.57350583
    H     -3.04763315     -0.05966247     -3.43170235
    H     -1.73085373      0.13846189     -2.30037439
    C     -3.64682188     -0.14296379     -1.37037654
    N     -4.31366074     -0.53742915     -0.52514605
    C     -2.65751336      2.13246701      1.45090279
    H     -3.35120405      1.32875548      1.31770673
    H     -2.93359064      2.70268908      2.31318303
    H     -1.67318830      1.73532107      1.58610027
    C     -2.67846472      3.04011217      0.20698105
    N     -2.69406396      3.71589526     -0.71917523
    C      0.33640133      2.80157613     -2.48834551
    H     -0.55360647      2.51992330     -1.96541340
    H      0.40889460      3.86864671     -2.52003435
    H      1.18956816      2.40101109     -1.98183479
    C      0.28508856      2.24767490     -3.92436795
    N      0.24688388      1.83527027     -4.99355192
   Cl      0.12539036      0.13853464     -0.05132246
