61
Energy:   -384.72945100
    C      2.69910098      2.27255609      1.14706343
    H      1.99943943      1.84387291      1.83379818
    H      3.53552504      2.66372743      1.68769166
    H      3.03571933      1.52026017      0.46468668
    C      2.01778522      3.40929089      0.36268927
    N      1.51051467      4.25564162     -0.22131295
    C      1.79778580      1.76843138     -2.95622533
    H      1.61366179      2.81744403     -2.85341006
    H      1.09936962      1.22324388     -2.35632157
    H      1.68434745      1.48523680     -3.98181378
    C      3.23125289      1.45088772     -2.49153391
    N      4.29853429      1.21446203     -2.14555002
    C      2.28515538     -2.14323241     -1.99450129
    H      1.47918734     -2.44495215     -1.35867042
    H      2.77116410     -1.28825470     -1.57294734
    H      2.98807033     -2.94496287     -2.08415572
    C      1.73398454     -1.78561711     -3.38731212
    N      1.32361280     -1.51935626     -4.42432309
    C     -1.35899450      2.78776295      1.85663923
    H     -1.52129690      3.83214443      1.68982968
    H     -1.43344588      2.26237169      0.92748902
    H     -0.38428265      2.64027079      2.27267045
    C     -2.42110433      2.25308250      2.83522980
    N     -3.21189339      1.85498859      3.56383496
    C     -0.63454157     -3.83061753      0.26158259
    H     -1.48410799     -4.37462415     -0.09505991
    H      0.26137720     -4.29494757     -0.09426328
    H     -0.68036579     -2.82315218     -0.09592657
    C     -0.63530166     -3.82936351      1.80158189
    N     -0.63586758     -3.82842983      2.94818137
    C     -0.56933342     -0.55484113      3.92455405
    H     -0.26597021     -1.49132774      4.34391519
    H     -0.68239855     -0.65816447      2.86557357
    H     -1.50222078     -0.25657293      4.35543263
    C      0.49944193      0.51242658      4.22498522
    N      1.29519376      1.30705591      4.44866988
    C      2.65597646     -1.85300589      2.07134935
    H      3.27981789     -1.81998936      2.94004491
    H      1.63084408     -1.76433169      2.36484481
    H      2.91112554     -1.04489459      1.41808512
    C      2.86631188     -3.19122814      1.33887394
    N      3.02291617     -4.18759543      0.79351271
    C     -1.83109130     -0.65172181     -3.03399742
    H     -0.91675719     -0.45624147     -2.51372753
    H     -2.48028820      0.19410177     -2.94441536
    H     -1.62166565     -0.83271054     -4.06757522
    C     -2.51410827     -1.88993477     -2.42414786
    N     -3.02264545     -2.81184060     -1.97008714
    C     -3.36916137     -0.91025318      1.04677696
    H     -3.58089927     -0.65565480      2.06424779
    H     -2.32545684     -1.12129606      0.94170156
    H     -3.93728890     -1.77352428      0.76948071
    C     -3.74889312      0.26952662      0.13270725
    N     -4.03162067      1.14792630     -0.54785919
    C     -1.49797544      3.03116707     -1.84343212
    H     -2.49232709      3.22747093     -1.50046015
    H     -0.84293066      3.80414933     -1.49946430
    H     -1.16839890      2.08786420     -1.46073369
    C     -1.48397100      2.99377055     -3.38291430
    N     -1.47354406      2.96592715     -4.52912875
   Cl      0.23293268     -0.06442316      0.13354655
