61
Energy:   -384.93899997
    C      2.28826764      2.84072613     -1.11844116
    H      2.04272598      2.25278017     -0.25883135
    H      3.14441675      3.44567217     -0.90408609
    H      2.50585363      2.19396823     -1.94261325
    C      1.09628608      3.74710826     -1.47795667
    N      0.20880163      4.42195095     -1.74563232
    C      3.62887089     -0.80952088     -0.41020199
    H      2.77041847     -1.36759557     -0.09953775
    H      3.65381951      0.12535236      0.10969098
    H      4.51551985     -1.36541753     -0.18719611
    C      3.55238145     -0.55175302     -1.92654796
    N      3.49543159     -0.35983313     -3.05553645
    C      0.09888140      0.81083173     -3.65625058
    H     -0.12777860      1.68872604     -3.08807191
    H      0.58264208      1.09141242     -4.56847268
    H      0.74753114      0.17647623     -3.08902426
    C     -1.20472447      0.05649008     -3.97746768
    N     -2.17531829     -0.50515157     -4.21662841
    C     -2.09927818      0.06029957      3.03646220
    H     -1.37970500     -0.26688886      3.75761569
    H     -2.71533413      0.82165895      3.46739846
    H     -1.59252858      0.45377026      2.18014173
    C     -2.97760777     -1.13088780      2.61077480
    N     -3.63156407     -2.01778095      2.29383118
    C     -3.11898887     -2.04059919     -1.08758962
    H     -3.37184551     -1.59610504     -2.02747719
    H     -2.38664000     -1.43716334     -0.59319159
    H     -3.99564306     -2.10863662     -0.47787868
    C     -2.54737150     -3.45091448     -1.32394608
    N     -2.12177640     -4.50095832     -1.49992421
    C     -0.06052372     -3.23195667      1.38790924
    H     -0.93849291     -2.71989020      1.05345714
    H     -0.18596926     -4.28505052      1.24593797
    H      0.78509239     -2.89451523      0.82580091
    C      0.16658877     -2.93894457      2.88262119
    N      0.33568434     -2.72078375      3.99550219
    C      1.86672500      0.28496973      3.23205586
    H      2.42520408     -0.62645274      3.28012244
    H      0.99962686      0.14020483      2.62206978
    H      1.56543001      0.57107471      4.21809052
    C      2.74454689      1.39331466      2.62164596
    N      3.39812519      2.21852785      2.16716805
    C      0.73909700     -2.88819487     -2.65588857
    H      0.16141852     -2.24561266     -2.02479756
    H      0.09501766     -3.60613131     -3.11916837
    H      1.22421110     -2.30492274     -3.41044607
    C      1.79931514     -3.61921826     -1.81141105
    N      2.58869574     -4.16349840     -1.18265914
    C     -0.22794794      3.45954715      1.83732385
    H      0.71219426      3.91505955      1.60593397
    H     -1.02118632      4.13481518      1.59301860
    H     -0.33779451      2.55970098      1.26889647
    C     -0.28128279      3.12717384      3.34008244
    N     -0.32099301      2.87970680      4.45895452
    C     -2.67762949      2.01994884     -1.14087828
    H     -1.68313928      2.40538079     -1.22650318
    H     -3.29366081      2.45003456     -1.90273836
    H     -2.65899817      0.95626840     -1.25549013
    C     -3.24914356      2.37711837      0.24382443
    N     -3.67466177      2.64304731      1.27479854
   Cl      0.11870693      0.03126110     -0.14864446
