61
Energy:   -385.41080802
    C      1.87482232      1.38407724     -2.82098707
    H      2.27265126      1.55620983     -1.84272193
    H      2.67719017      1.31816188     -3.52579917
    H      1.32072593      0.46872897     -2.82470517
    C      0.94491908      2.54862318     -3.20920444
    N      0.25256384      3.41568056     -3.49824991
    C     -0.33408048     -2.12723663     -3.04457745
    H     -1.23385475     -2.35625479     -3.57642060
    H      0.43718054     -1.87301308     -3.74130259
    H     -0.50840092     -1.30045465     -2.38811494
    C      0.10177441     -3.35346373     -2.22117135
    N      0.42628819     -4.26644554     -1.60810808
    C      3.35111333     -1.96178603     -1.02805809
    H      4.33891290     -1.73541503     -0.68468023
    H      3.08828826     -2.95486856     -0.72871018
    H      2.65778234     -1.26605851     -0.60361204
    C      3.30557024     -1.85962196     -2.56399049
    N      3.27166135     -1.78355616     -3.70756197
    C     -0.03045488      3.71455026      0.34258527
    H      0.19354269      3.12778336      1.20885882
    H      0.60702148      4.57360228      0.31907769
    H      0.12995466      3.12718887     -0.53728657
    C     -1.50120579      4.16802538      0.39599008
    N     -2.59624669      4.50565822      0.43575239
    C      0.75168545     -3.30697418      1.63451910
    H      0.48760757     -2.68045231      0.80830279
    H     -0.01167361     -3.25177189      2.38227223
    H      0.84931427     -4.31812800      1.29846006
    C      2.08991648     -2.83284092      2.23112229
    N      3.08629031     -2.47982716      2.67532048
    C      0.07470357     -0.11556388      3.74026136
    H      1.05627332     -0.53230748      3.65225121
    H     -0.50258610     -0.37747934      2.87826598
    H     -0.39953073     -0.50216952      4.61806374
    C      0.17538551      1.41762366      3.84418012
    N      0.25034779      2.55915147      3.92155236
    C      3.16301837      1.14370655      1.70804270
    H      2.77899219      0.14862124      1.79306805
    H      2.35141028      1.82983239      1.58385447
    H      3.70803370      1.39263930      2.59454699
    C      4.09942497      1.23010028      0.48850229
    N      4.79662224      1.29442435     -0.41950098
    C     -2.82275830     -2.16933783     -0.00290897
    H     -2.33155054     -1.29393260     -0.37342323
    H     -3.85243532     -2.15040884     -0.29326398
    H     -2.35347581     -3.04072439     -0.40955192
    C     -2.72318091     -2.20236533      1.53351334
    N     -2.64904101     -2.22695581      2.67744959
    C     -2.99160984      1.40040629      2.04868189
    H     -2.93105952      0.74591990      2.89300493
    H     -3.14662270      2.40402295      2.38576305
    H     -2.07997916      1.34829157      1.49090717
    C     -4.16772319      0.97292520      1.15112003
    N     -5.04339305      0.65464610      0.48284443
    C     -2.68546465      1.74825197     -2.04526882
    H     -2.28478219      2.40897123     -2.78540652
    H     -1.94581139      1.56298486     -1.29461028
    H     -3.54607689      2.19704895     -1.59490570
    C     -3.08805809      0.41802176     -2.70859838
    N     -3.38780720     -0.57239510     -3.20247739
   Cl      0.17787466      0.10592921      0.06704354
