61
Energy:   -385.59813228
    C      2.02961600      2.95631608     -1.18258455
    H      2.96975009      2.98126785     -0.67226555
    H      2.14472258      3.36987811     -2.16269475
    H      1.69260401      1.94373466     -1.26004979
    C      0.99590176      3.78254582     -0.39494295
    N      0.22625452      4.39771141      0.19149203
    C      1.56058277     -0.53759499     -3.29227408
    H      1.32784291     -1.25094907     -2.52947771
    H      1.44953328     -0.99426312     -4.25353436
    H      0.89553874      0.29705252     -3.21494962
    C      3.01255127     -0.05490527     -3.11792351
    N      4.09360781      0.30447916     -2.98811159
    C      1.55094883     -3.66290840      0.27973415
    H      1.31127954     -2.63739823      0.46891051
    H      2.45644173     -3.91751874      0.78978835
    H      0.75569902     -4.28594333      0.63230232
    C      1.73722615     -3.87572372     -1.23407244
    N      1.87591808     -4.03417439     -2.36117026
    C     -2.28124918      2.63158422      1.90150744
    H     -2.35514460      2.39265410      2.94186894
    H     -1.82440779      3.59245151      1.78780128
    H     -1.68562612      1.89273863      1.40730155
    C     -3.68965954      2.65591974      1.27910241
    N     -4.73828508      2.67403865      0.81569357
    C     -0.53254643     -2.00365312      2.89132879
    H      0.46309731     -1.66275916      2.69797668
    H     -1.01068633     -2.25113755      1.96664896
    H     -0.49744208     -2.87033064      3.51785640
    C     -1.32789056     -0.89072327      3.59872887
    N     -1.92006041     -0.06209641      4.12542039
    C      1.28306777      1.76214212      2.82316926
    H      1.34700104      0.69418146      2.83968438
    H      0.57262363      2.06551093      2.08280747
    H      0.97042922      2.11562505      3.78348485
    C      2.66352841      2.35383269      2.48283015
    N      3.69134410      2.79437322      2.22943222
    C      3.83031099     -0.27632452      0.42461904
    H      4.54604562      0.49061371      0.63540300
    H      2.92558743      0.16880722      0.06652395
    H      4.22302826     -0.93545538     -0.32118170
    C      3.53709396     -1.07214491      1.71003481
    N      3.31878056     -1.66466936      2.66708527
    C     -1.59199426     -2.63717503     -2.31586572
    H     -2.46276637     -2.69468144     -2.93501765
    H     -0.75354457     -3.04503850     -2.84079296
    H     -1.39587536     -1.61436768     -2.07030192
    C     -1.82773915     -3.43946975     -1.02267295
    N     -2.00326194     -4.03681463     -0.05983215
    C     -3.71064231     -0.82625672      0.75735582
    H     -4.43627469     -0.32830091      1.36595901
    H     -2.77157562     -0.31930337      0.83514493
    H     -3.59899336     -1.83696801      1.09036676
    C     -4.17852001     -0.81790598     -0.70982539
    N     -4.52687623     -0.81168847     -1.80220850
    C     -2.06910880      2.05060231     -2.00981361
    H     -2.19027272      0.98748861     -2.00685864
    H     -3.01281550      2.51659921     -2.20259233
    H     -1.70143464      2.37032377     -1.05718934
    C     -1.06566527      2.44984497     -3.10767807
    N     -0.31855595      2.74709927     -3.92508807
   Cl      0.02095747     -0.09077294     -0.03639338
