61
Energy:   -384.74370990
    C      2.57794919      2.54411939     -1.22210482
    H      2.63765161      2.12428002     -0.23972470
    H      3.56270781      2.63985470     -1.62951652
    H      1.99339708      1.90349575     -1.84884183
    C      1.91602295      3.93260856     -1.14759663
    N      1.42318877      4.96640186     -1.09212189
    C      1.77962463     -0.48952968     -3.50014656
    H      1.95778947      0.39825340     -4.07023311
    H      1.00865210     -0.30346056     -2.78189957
    H      1.47408261     -1.27861979     -4.15503583
    C      3.07257894     -0.89937493     -2.77083455
    N      4.03524220     -1.20452334     -2.22782860
    C      1.03691363     -3.38685405     -0.85448268
    H      1.01031668     -4.31402434     -0.32105224
    H      0.30867074     -2.71856775     -0.44465977
    H      2.01040203     -2.95182055     -0.76523428
    C      0.72222258     -3.64037809     -2.34051603
    N      0.48792079     -3.82913826     -3.44693540
    C     -0.02432873      3.36740924      1.73250791
    H      0.26955232      4.39583227      1.76217586
    H     -0.37133463      3.12382343      0.75008644
    H      0.81412636      2.74964494      1.97798586
    C     -1.15461924      3.12694870      2.75045786
    N     -1.99617191      2.94791490      3.50836786
    C     -1.23347607     -3.10222119      2.03461663
    H     -1.66348036     -3.74668593      1.29660464
    H     -0.43279674     -3.61102548      2.52952054
    H     -0.85674605     -2.21956285      1.56144875
    C     -2.30918258     -2.71274338      3.06552038
    N     -3.11009496     -2.42275945      3.83307509
    C     -0.07651768     -0.08847474      3.90784848
    H      0.12884254     -1.10584099      4.16802780
    H     -0.38577773     -0.03741588      2.88478920
    H     -0.85622798      0.28975960      4.53545483
    C      1.19522264      0.75791235      4.10254172
    N      2.14209111      1.38808601      4.24749969
    C      3.29748397     -0.77041030      1.38583440
    H      2.90162373      0.15606520      1.74616480
    H      3.07362997     -0.87299707      0.34455421
    H      4.35823828     -0.78344788      1.52558203
    C      2.66271483     -1.93743190      2.16476233
    N      2.19010035     -2.80633252      2.74470958
    C     -2.06223926     -1.09206823     -2.80590454
    H     -2.93923436     -0.66332676     -3.24403756
    H     -1.45010967     -1.51557495     -3.57456474
    H     -1.51289290     -0.33201299     -2.29070196
    C     -2.47167979     -2.19351567     -1.81052925
    N     -2.77652687     -3.01359336     -1.06942710
    C     -3.27624885      0.16822732      1.08170047
    H     -4.04297124     -0.06740880      1.78987599
    H     -2.62284739      0.90728714      1.49613527
    H     -2.71693758     -0.71518069      0.85441147
    C     -3.91814267      0.71512165     -0.20689525
    N     -4.39606179      1.12230934     -1.16631333
    C     -1.56306829      2.93896902     -2.04749757
    H     -2.57963149      3.03964676     -2.36587384
    H     -1.23100410      3.86081182     -1.61756931
    H     -1.49339472      2.15954125     -1.31774622
    C     -0.67817772      2.58909651     -3.25834764
    N     -0.01933646      2.32860052     -4.15988056
   Cl      0.17229988      0.18430067      0.01179376
