61
Energy:   -385.00519440
    C      1.85089521      2.31475887      2.14163694
    H      1.44152141      1.36762315      1.85835756
    H      1.20998525      2.77939683      2.86152934
    H      2.82136391      2.17053711      2.56859091
    C      1.96576945      3.21676807      0.89874382
    N      2.05129854      3.88835491     -0.02664661
    C      0.65565509      2.36699688     -3.01774309
    H     -0.03451644      2.92799342     -3.61259291
    H      1.30830723      3.03854426     -2.50008644
    H      0.11605293      1.77578013     -2.30767876
    C      1.48628020      1.44396353     -3.92860606
    N      2.10471835      0.75672324     -4.60678495
    C      2.39507532     -1.92227337      2.17516818
    H      1.95214054     -1.01245498      1.82740466
    H      3.30176037     -1.70039480      2.69822764
    H      1.71557808     -2.42043507      2.83472675
    C      2.70559021     -2.83409216      0.97359963
    N      2.93678266     -3.51298270      0.07897722
    C     -1.74255950      3.12091275     -0.12414742
    H     -0.77483456      3.38975438     -0.49310921
    H     -2.46625898      3.82764270     -0.47298969
    H     -1.99971559      2.14378082     -0.47625965
    C     -1.72366117      3.12315850      1.41573498
    N     -1.70959051      3.12483056      2.56224742
    C     -0.93696487     -3.58717375      0.21886901
    H      0.06179193     -3.32564109     -0.06217493
    H     -1.62820627     -2.93498364     -0.27279398
    H     -1.13500230     -4.59871359     -0.06830241
    C     -1.09453161     -3.44639002      1.74430425
    N     -1.21184720     -3.34157013      2.88006012
    C     -0.56494488     -0.09295481      3.87743036
    H     -1.16736002     -0.87483553      4.29053895
    H     -0.35375168     -0.30981689      2.85114221
    H     -1.09130866      0.83619743      3.94463440
    C      0.75569502      0.00720379      4.66322838
    N      1.73897145      0.08177641      5.24829072
    C      3.35729294      0.27849199     -1.11241065
    H      2.58419086      1.01807837     -1.09739899
    H      2.91762923     -0.69642080     -1.14617399
    H      3.97204275      0.42262363     -1.97624387
    C      4.21799043      0.40974455      0.15785412
    N      4.85881884      0.50746805      1.10362398
    C      0.96158693     -2.15866199     -2.95715307
    H      1.45920363     -2.60786860     -2.12319191
    H      0.76800704     -1.12809958     -2.74415767
    H      1.58261900     -2.23289220     -3.82531672
    C     -0.36982312     -2.88854505     -3.21448167
    N     -1.36111842     -3.43197616     -3.40607450
    C     -3.33232503     -0.30968526      1.48191575
    H     -2.58685088      0.38695235      1.80419593
    H     -2.86703723     -1.10125964      0.93253761
    H     -3.83442484     -0.71505917      2.33541846
    C     -4.35227060      0.41038941      0.58035959
    N     -5.11166643      0.94651773     -0.09088996
    C     -3.00041359     -0.29200466     -2.71856094
    H     -3.99440517     -0.45447745     -2.35733590
    H     -2.29933200     -0.48965077     -1.93477544
    H     -2.80867452     -0.94747617     -3.54226739
    C     -2.85480286      1.16968892     -3.18099944
    N     -2.74638904      2.25798624     -3.52530593
   Cl     -0.10002683     -0.14184892     -0.08669475
