61
Energy:   -385.92820007
    C      3.59809511     -0.85293615      0.21319711
    H      3.61711310     -1.86119462      0.57090279
    H      2.71577525     -0.36431203      0.57048863
    H      4.46278015     -0.33217288      0.56819640
    C      3.59610439     -0.85456095     -1.32680075
    N      3.59462220     -0.85577068     -2.47339915
    C      2.20173591      2.66640705     -1.01717365
    H      2.30612597      3.44944136     -1.73888008
    H      1.29158293      2.80331569     -0.47148450
    H      2.17880812      1.72089502     -1.51755392
    C      3.39443320      2.70320749     -0.04366509
    N      4.28245054      2.73060708      0.68115628
    C      0.74115645     -3.14599297     -1.95502577
    H      1.53707379     -2.76366287     -2.55937622
    H      0.04666396     -2.36056427     -1.74129457
    H      0.24011880     -3.93189570     -2.48058953
    C      1.31630119     -3.69558123     -0.63640480
    N      1.74452258     -4.10477467      0.34536845
    C     -1.53714058      3.45816303     -1.12359943
    H     -1.96217034      4.24035300     -0.52994234
    H     -0.71056476      3.84392594     -1.68293696
    H     -1.19845396      2.66944118     -0.48476587
    C     -2.60252420      2.91235286     -2.09243843
    N     -3.39575072      2.50597238     -2.81378310
    C     -1.84731699     -2.89006896      1.26803246
    H     -1.54144863     -2.93924455      0.24386134
    H     -1.70548416     -3.84526547      1.72888187
    H     -1.26103250     -2.15622410      1.78051788
    C     -3.33548610     -2.50071130      1.34119885
    N     -4.44349564     -2.21081682      1.39567455
    C      1.39114628      1.87170111      2.84821033
    H      1.50577890      1.18175940      2.03843259
    H      0.93852740      1.37344487      3.67994103
    H      2.35115420      2.24631899      3.13621264
    C      0.49589849      3.04265030      2.40210565
    N     -0.17065418      3.91447520      2.06996045
    C      1.31335463     -1.97942969      3.07874163
    H      0.53351921     -1.82323599      3.79453519
    H      1.42657841     -3.02791033      2.89772275
    H      1.06211752     -1.48462614      2.16389276
    C      2.63437304     -1.40734976      3.62576529
    N      3.61793130     -0.98141024      4.03304928
    C     -2.78654594      1.10900087      2.01593487
    H     -3.77137540      1.40786235      2.30866842
    H     -2.85065997      0.42093421      1.19901826
    H     -2.22749281      1.96995061      1.71406696
    C     -2.08146877      0.43004013      3.20483290
    N     -1.55650677     -0.07547700      4.09002151
    C     -3.52000247     -0.75085032     -1.81738339
    H     -3.88785700     -0.22636552     -2.67441252
    H     -2.71642873     -0.19736241     -1.37827126
    H     -4.30819464     -0.86317356     -1.10251579
    C     -3.01270401     -2.14066615     -2.24477105
    N     -2.63499724     -3.17544721     -2.56298059
    C      0.09065789      0.34181257     -3.65185670
    H      0.02970127     -0.17859445     -4.58478810
    H     -0.82618550      0.21861349     -3.11415856
    H      0.89906384     -0.05520704     -3.07414194
    C      0.33445914      1.83953836     -3.91449410
    N      0.51598025      2.95466329     -4.11003959
   Cl     -0.11376343      0.00600823     -0.08966136
