21
Energy:   -241.23757871
O   -1.16961316   1.71750738  -0.03637467
H   -0.99241653   1.65505689   0.90220571
H   -0.30348384   1.75477597  -0.44216145
O   -0.27303111  -1.42240827   1.55265807
H    0.57814718  -1.35844684   1.11948800
H   -0.90958352  -1.37223720   0.83955517
O    2.03478060  -0.94150523   0.11150374
H    2.92232007  -0.95745878   0.46962526
H    1.91918584  -0.04505368  -0.20352692
O   -1.87414034  -0.80637192  -0.63581811
H   -2.81583607  -0.86934050  -0.79543000
H   -1.72428336   0.11979944  -0.44613062
O   -0.56158955   1.07136118   2.55486374
H   -0.43731968   0.15583674   2.30465613
H   -0.89827352   1.03192905   3.45002901
O    1.26288532   1.33414604  -1.31303426
H    0.91927795   0.58896790  -1.80585813
H    1.58782338   1.93565589  -1.98298426
O    0.37145407  -1.03595794  -2.23253953
H    0.96501358  -1.44214458  -1.60092938
H   -0.48705169  -1.06866351  -1.81048497
