21
Energy:   -234.18322661
O    0.71614846  -0.13744309  -1.47305120
H    1.27337674  -0.76380524  -1.01109998
H    0.54805922   0.55285204  -0.83159155
O    1.94888602  -1.76363409   0.42176270
H    2.67569234  -2.38306093   0.48729752
H    2.21251759  -1.02534104   0.97099271
O   -2.29112893   2.01395820  -0.58141475
H   -2.23645232   1.20274896  -1.08657006
H   -3.21582845   2.25836014  -0.61923439
O   -0.08345571   1.19351882   0.85066811
H   -0.42930207   0.32423254   1.05306252
H   -0.83217236   1.67313070   0.49622817
O   -0.77985087  -1.43601613   1.01940407
H    0.10903018  -1.73653504   0.83016688
H   -1.25740593  -1.56846623   0.20048406
O   -1.93002459  -0.32162219  -1.98512775
H   -0.97577847  -0.31728055  -1.91011223
H   -2.09671641  -0.30979112  -2.92762746
O    2.39138779   0.52280339   1.85263686
H    1.56155450   0.92863741   1.60182357
H    2.70677363   1.05367463   2.58403234
