21
Energy:   -242.88800828
O   -1.87196916  -0.63512609   0.65486417
H   -1.63389453  -0.08959987   1.40449972
H   -1.18133250  -1.29638801   0.61030504
O    0.41749840  -2.19476138   0.48277831
H    0.90742923  -1.42129453   0.76197119
H    0.77308071  -2.90824423   1.01262291
O   -0.63318587   1.53026011   2.04161544
H   -0.86524819   2.28021449   2.58928995
H   -0.85542509   1.80485958   1.15198816
O   -1.25953755   1.77446060  -0.56915508
H   -0.42643770   1.59686719  -1.00577514
H   -1.63384374   0.90887830  -0.40516117
O    1.58011514   0.14998442   1.09409893
H    1.60609386   0.53291584   0.21721782
H    0.92429274   0.66665431   1.56226670
O    1.20874785   0.97550110  -1.53489380
H    1.78998631   1.32270475  -2.21153501
H    0.95394787   0.11117937  -1.85778199
O    0.37654724  -1.51390653  -2.18167598
H    0.41406838  -1.89165879  -1.30296827
H   -0.49166823  -1.75068702  -2.50781820
