21
Energy:   -236.43636726
O   -2.36918773  -0.81715628   1.59316353
H   -3.28959467  -0.76956388   1.85165509
H   -2.38160314  -1.25142424   0.74023385
O   -0.08715201   0.68556459   1.61163741
H   -0.21136862   1.24720600   0.84654852
H   -0.90580626   0.19494497   1.68464058
O    2.73674094   1.59261275  -0.42162609
H    2.60195946   0.69193277  -0.12693748
H    3.33647090   1.96871397   0.22265933
O    1.85051301  -0.84182057   0.55446040
H    1.17733797  -0.35578924   1.03073841
H    2.03570899  -1.60042510   1.10804279
O   -2.28446620  -1.92228477  -0.89856194
H   -2.47506093  -2.57498767  -1.57227139
H   -1.47134209  -1.50866269  -1.18835118
O    0.08687867   1.97567449  -0.87708548
H    1.03950680   1.95668323  -0.78559323
H   -0.09200322   2.78401302  -1.35752479
O    0.04115418  -0.71900188  -1.57096361
H    0.72825453  -0.94157804  -0.94280375
H   -0.05300557   0.23069216  -1.49715963
