21
Energy:   -243.61685075
O   -1.58339082   1.34310881  -0.15167882
H   -1.52924221   0.75973046   0.60526866
H   -1.36830508   0.78610672  -0.89982228
O    1.77306188   0.44736925  -0.90223089
H    1.54561106   1.32912866  -0.60727611
H    1.04107639   0.18471061  -1.46029856
O   -1.10984353  -0.46606440   1.88340660
H   -0.17609885  -0.64606111   1.77407267
H   -1.21107598  -0.28227537   2.81732599
O    1.47875271  -1.19958814   1.19429731
H    2.34128624  -1.40681221   1.55391648
H    1.65798808  -0.59559703   0.47367170
O   -0.60689843  -0.44992415  -2.04103694
H   -0.66771407  -1.21455050  -1.46842900
H   -0.88952125  -0.76887751  -2.89813959
O    0.69275720   2.79203385   0.01006018
H   -0.16663827   2.37071542  -0.00266993
H    0.52149805   3.69470716  -0.25842270
O   -0.67691729  -2.40190665  -0.17954102
H    0.20335495  -2.30432757   0.18354431
H   -1.25200564  -2.00713588   0.47594450
