21
Energy:   -239.26250223
O    0.75818982   0.45574749  -2.39855130
H    0.21071170   1.18084011  -2.09732008
H    0.29166789  -0.33078175  -2.11577771
O   -2.06016568   0.21030355   0.18574724
H   -1.60401827   1.02649516  -0.01917385
H   -1.81639796   0.02005885   1.09162588
O   -0.34910909   2.27312598  -0.48819652
H    0.46994400   1.90725377  -0.15424829
H   -0.25976689   3.21755213  -0.36048954
O   -0.61026940  -1.60932513  -1.13690659
H   -1.20912379  -0.99973001  -0.70563050
H   -1.18292035  -2.22716977  -1.59140713
O    1.94967926   0.92773102   0.03018746
H    1.78013144   0.09946943   0.47903946
H    1.83093909   0.72636519  -0.89802826
O    1.12230841  -1.54241939   0.99503007
H    1.70045956  -2.30522447   1.00510492
H    0.55644102  -1.68019290   0.23539568
O   -0.88352292  -0.48470318   2.56896571
H   -0.13297487  -0.90043143   2.14460797
H   -0.52240077  -0.09081011   3.36311360
