21
Energy:   -233.93452713
O   -1.41117806   0.89061829  -0.80214515
H   -1.65782970   0.28825955  -0.10031984
H   -1.02697812   0.32965229  -1.47589540
O    2.30055697   0.40758956  -1.43296694
H    1.85707329   1.03600307  -0.86318581
H    2.74709827  -0.18822853  -0.83144094
O   -1.66210231  -0.83045450   1.37123255
H   -1.01632200  -0.30917562   1.84816857
H   -2.44706800  -0.79904235   1.91810912
O    0.18439235   0.81219880   2.50136819
H    0.45405355   1.33286072   1.74477990
H    0.87770840   0.94983356   3.14681484
O    0.01793059  -0.82012160  -2.34717246
H    0.87332585  -0.41395819  -2.20730798
H   -0.02224318  -1.52402674  -1.69976574
O    0.78581999   2.08852431   0.14391216
H   -0.02008555   1.73195259  -0.22972498
H    0.79098735   3.00621667  -0.12820156
O   -0.21976879  -2.55820823  -0.23645570
H   -0.67654608  -3.39909565  -0.25869768
H   -0.72644984  -2.02601741   0.37696022
