21
Energy:   -233.22946265
O    0.12680936  -1.66489792  -2.72103908
H    0.57718345  -1.01643439  -2.17984586
H    0.22663268  -1.34128571  -3.61632802
O   -1.48727735   1.02394017  -0.35542558
H   -1.32658097   1.04160129   0.58802373
H   -1.81655485   0.14155270  -0.52630715
O    0.62483242  -1.37546061   1.29188423
H    1.28363510  -1.62630863   1.93940732
H    0.19032910  -0.61319544   1.67449438
O   -0.41601314   0.98106600   2.23342494
H    0.29120485   1.53144093   1.89702933
H   -0.75047385   1.45778264   2.99310193
O    1.02132372   0.20242526  -0.92188565
H    1.02971988  -0.44873888  -0.22035403
H    0.14184301   0.57884419  -0.88941525
O    1.60764333   2.19355393   0.85935074
H    1.55317980   1.54516044   0.15731694
H    1.74926623   3.02533959   0.40734696
O   -1.82620010  -1.64873057  -0.78173547
H   -1.27075405  -1.77888426  -1.55035212
H   -1.33923774  -2.05144843  -0.06276550
