21
Energy:   -235.88313084
O   -1.37395103   1.58241742   0.11916078
H   -1.12088563   1.00983571   0.84327399
H   -2.23565988   1.91700103   0.36764319
O    1.62545680  -0.02524648  -1.37356229
H    1.60937021   0.90543063  -1.15037357
H    0.75151811  -0.20391863  -1.72074995
O   -0.58840722  -0.18674948   2.05181379
H    0.20222261  -0.59929364   1.70404425
H   -0.41457343  -0.08567659   2.98765455
O    1.49716724  -1.52890625   0.83456957
H    2.33516656  -1.97487606   0.95745128
H    1.62068114  -0.99864959   0.04729323
O   -1.04417363  -0.40751047  -1.80375227
H   -1.18662362  -1.18098019  -1.25814763
H   -1.27237440   0.33036002  -1.23832906
O    1.09422032   2.56402569  -0.64755704
H    0.96203477   3.21891977  -1.33302956
H    0.21015225   2.33446140  -0.36127789
O   -1.12350981  -2.32717010   0.16360018
H   -0.17261805  -2.36664620   0.26596402
H   -1.42261291  -1.79709755   0.90237774
