21
Energy:   -237.40095708
O   -1.51303191   1.18674786   0.31026363
H   -1.94437737   0.44953101  -0.12180610
H   -1.06596166   0.79657079   1.06134412
O    2.21688875   1.26023493   0.91196707
H    1.74718038   1.49438310   0.11147939
H    3.13563500   1.21633387   0.64699560
O    0.18708534  -0.01610493   2.17077068
H    0.95327101   0.43287766   1.81355087
H    0.15516410   0.25635511   3.08781943
O   -0.02789219  -2.14749851   0.44750552
H    0.06779360  -1.47054591   1.11743928
H    0.36732978  -2.92768729   0.83652598
O    0.24378209  -0.93522899  -2.09863574
H    0.31191317  -1.40368412  -1.26668635
H    0.47149175  -0.03061597  -1.88403045
O    0.60014634   1.68802627  -1.26037689
H    0.40319829   2.38161966  -1.88995733
H   -0.19802901   1.60360645  -0.73882033
O   -2.28284451  -1.09700812  -0.96892934
H   -1.87421836  -1.70019533  -0.34810594
H   -1.64006638  -1.00449982  -1.67214363
