21
Energy:   -238.56494511
O    0.71729784   1.34398660  -1.51220717
H   -0.02355364   0.74795028  -1.62226004
H    0.92366007   1.63678739  -2.39985247
O    1.98538554  -0.46465548   0.15344207
H    2.93427648  -0.33934457   0.16506071
H    1.66331004   0.19771298  -0.45792301
O   -1.78220423  -1.31540448   0.99527530
H   -2.34115975  -1.65943612   1.69201257
H   -1.16584078  -0.73766341   1.44532329
O    0.10857964   0.27285631   2.06575972
H   -0.01548466   1.17825210   1.78098197
H    0.86587689  -0.03392356   1.56714281
O   -1.25559443  -0.46151114  -1.69369178
H   -1.79748593  -0.48658286  -0.90504936
H   -0.72393850  -1.25598891  -1.64491790
O   -0.13044900   2.67737561   0.75354204
H    0.17115798   2.32573557  -0.08408220
H   -0.75883253   3.35901922   0.51536567
O    0.22329261  -2.49325477  -0.60407208
H    0.95164544  -1.94183505  -0.31829193
H   -0.47693503  -2.30947704   0.02213783
