21
Energy:   -234.18002872
O   -1.14950253  -1.41331329  -1.25029130
H   -0.65874208  -1.95858040  -0.63541749
H   -1.65733419  -0.82225839  -0.69441994
O    0.16986892   1.19636130   1.68137695
H    0.48967821   1.43510740   2.55140808
H    0.86274171   0.64816172   1.31308852
O   -2.23530417   0.43645656   0.48907246
H   -1.46083266   0.62910870   1.01757117
H   -2.91782652   0.23323049   1.12867723
O    0.82419082   0.36246633  -1.87061259
H    0.12371181  -0.28967389  -1.85405589
H    0.38722968   1.18925138  -1.66634978
O    2.06672400  -0.31913714   0.38704157
H    1.69199540  -0.08240084  -0.46134882
H    3.00768970  -0.17902540   0.28128664
O   -0.56083188   2.44899599  -0.74649878
H   -1.41821058   2.02499060  -0.70971490
H   -0.18421325   2.30451984   0.12155473
O    0.55151267  -2.62679742   0.52873620
H    1.08802398  -3.37449032   0.26540600
H    1.16145624  -1.88940608   0.55005966
