21
Energy:   -233.19681664
O   -1.20137166  -0.71347157  -1.40928908
H   -1.90493613  -0.85338750  -2.04304962
H   -1.52149078  -1.11681492  -0.60240016
O   -1.98295272  -1.62054337   1.00471583
H   -1.99854973  -0.84376720   1.56382885
H   -1.34255975  -2.20025011   1.41710980
O   -1.75680999   0.76848876   2.33579084
H   -1.17209208   1.12170002   1.66528460
H   -2.34091335   1.49535966   2.55192461
O    1.56684170  -0.69742502   1.09178557
H    2.26389513  -0.35198201   1.64947499
H    1.00014754   0.05509353   0.92206399
O    2.00078763   1.69217658  -1.54279851
H    1.94276046   0.74848028  -1.69213701
H    2.65646796   1.99471147  -2.17111992
O    1.56328991  -0.98282958  -1.64922267
H    1.71372918  -1.04589955  -0.70602489
H    0.61074814  -0.99989746  -1.74198426
O   -0.12575561   1.30316259   0.16139997
H   -0.58027138   0.70305588  -0.42980152
H    0.57407162   1.68079599  -0.37139147
