21
Energy:   -232.11203493
O    1.29786103   0.60635123  -0.05929073
H    1.51434492   0.62828281  -0.99143105
H    0.47299094   1.08743383   0.00689627
O   -0.30719387  -1.62143849  -0.21092621
H    0.38801217  -0.96375368  -0.19166236
H   -0.80388484  -1.46923902   0.59304223
O    1.46205708   0.46778732  -2.77849037
H    1.88867814   0.13017163  -3.56604479
H    0.55843323   0.15888650  -2.84388196
O   -1.23892094   1.55882135   0.40960243
H   -1.55228183   2.37150959   0.80655914
H   -1.42603226   0.88484352   1.06303574
O    1.35647607  -0.14978276   2.58083488
H    2.16152353  -0.60895572   2.82018947
H    1.50290735   0.13741690   1.67955463
O   -1.33084445  -0.55914102   2.20985781
H   -1.73635373  -1.02868677   2.93877541
H   -0.41817968  -0.44599728   2.47532600
O   -1.14093153  -0.42114558  -2.59472395
H   -1.00988148  -0.98907196  -1.83543655
H   -1.69256874   0.29044202  -2.26980654
