21
Energy:   -238.34586333
O   -1.89439949   1.09467821  -0.53271920
H   -1.69915036   0.69135558   0.31311795
H   -2.84370717   1.01291201  -0.62415810
O    1.85932715   0.46614290  -0.43692216
H    1.47471466   1.28701473  -0.12955508
H    1.30011586   0.19718406  -1.16574019
O   -0.88881468   0.34636156   1.86895442
H   -0.25832145  -0.36748196   1.77336381
H   -0.36343174   1.14266458   1.79081274
O    1.11846732  -1.47006008   1.26461065
H    1.84544809  -1.68462800   1.84915441
H    1.47537435  -0.81038993   0.66989684
O   -0.12712086  -0.34930368  -2.11194517
H   -0.82529158   0.15245261  -1.69119569
H   -0.23877661  -1.24035193  -1.78058759
O    0.26396704   2.55473400   0.45614323
H   -0.50309857   2.26348271  -0.03682216
H    0.31654887   3.49500222   0.28478781
O   -0.28300952  -2.72648942  -0.75461339
H    0.06508521  -3.60784519  -0.88979442
H    0.17963485  -2.40160051   0.01781087
