21
Energy:   -233.63452312
O    1.36349952  -0.71050461   0.42301796
H    1.68856845   0.17363470   0.59289943
H    0.42444307  -0.65931887   0.60130108
O   -1.68082281  -2.30225487  -1.13771436
H   -2.23332592  -2.43336799  -1.90828655
H   -0.78862271  -2.27742865  -1.48353870
O    0.92577830  -2.02371757  -1.91940283
H    1.18933730  -1.57568882  -1.11563748
H    1.51391687  -2.77660931  -1.97838501
O   -0.62179557   1.56373766   2.54710737
H   -1.00186972   0.91159304   1.95847939
H   -1.11325608   1.46625198   3.36270222
O   -0.25644792   1.53691289  -1.28304827
H    0.24624352   0.98985183  -1.88658565
H    0.38684857   1.84223410  -0.64337614
O    1.45282488   2.07518010   0.83845978
H    1.90831771   2.89305363   1.03806194
H    0.78972145   1.99624352   1.52424014
O   -1.33783350  -0.17708167   0.54135692
H   -1.62933192  -0.95501930   0.06588498
H   -1.14166475   0.46290005  -0.14287481
