21
Energy:   -237.59574353
O   -1.80566776   1.41804784  -0.24307572
H   -2.68883498   1.76575055  -0.11917921
H   -1.82499622   0.55841825   0.17751342
O    2.19822384  -0.33393943   0.37842113
H    1.84971251   0.50183164   0.06816572
H    3.11504476  -0.32858321   0.10338920
O   -1.63666828  -1.09089621   0.88629961
H   -0.93657272  -1.01291777   1.53438712
H   -2.15764171  -1.83654175   1.18434533
O    0.52722733  -0.84134152   2.49667776
H    1.20035031  -0.69549270   1.83194818
H    0.93176079  -0.55350573   3.31505120
O   -0.38563124   0.64491159  -2.56747065
H   -0.16950865  -0.23514545  -2.25921347
H   -1.03727011   0.96449955  -1.94340161
O    1.02748287   1.88455750  -0.58322351
H    0.19250064   2.04479547  -0.14349595
H    0.78376384   1.56573548  -1.45223755
O    0.22206997  -1.60952303  -1.12110879
H    0.99946875  -1.30481879  -0.65309349
H   -0.48510502  -1.54505863  -0.47925233
