21
Energy:   -233.45932105
O   -1.69885367   0.39044392   0.89286519
H   -2.43157180   0.16071126   1.46433601
H   -0.92839269   0.03489273   1.33581562
O    0.66839117   0.63572714  -2.16117441
H    0.15199586   1.37733867  -1.84561131
H    1.39918168   0.57313497  -1.54614652
O    0.64250647  -0.65665793   1.86868343
H    0.63687868  -1.47359677   1.36987374
H    1.05670009  -0.88623321   2.70053119
O    2.02339106   1.23112271   0.25339859
H    1.63131085   0.54698898   0.79604580
H    1.32751720   1.87929062   0.14445009
O   -1.08924900  -1.26440370  -1.28546047
H   -1.49669491  -0.70754946  -0.62203524
H   -0.47574779  -0.68688262  -1.73968236
O   -0.57681350   2.51951785  -0.48899548
H   -1.15935355   3.27602550  -0.55663507
H   -1.08285416   1.86981716  -0.00109825
O    0.41306483  -2.85929461   0.30163089
H    0.89430277  -3.53539002  -0.17537739
H   -0.11454384  -2.42306758  -0.36737353
