21
Energy:   -242.11192420
O    1.59972945  -2.43269665  -0.81728387
H    1.63474394  -1.64743319  -0.27105395
H    2.49899819  -2.76056981  -0.82412417
O   -1.39390736  -0.92305894   0.99714630
H   -1.35957258  -1.25214038   0.09894901
H   -1.91911646  -1.56902871   1.46949184
O   -0.93720815  -1.62410623  -1.56075399
H   -0.10150918  -2.07916942  -1.45704002
H   -0.69626038  -0.73951497  -1.83584366
O    0.73860394   2.25567078   1.87389934
H    1.36178881   2.46832404   2.56863026
H    1.07119855   1.44257350   1.49378686
O   -0.04991128   1.03236092  -1.64955458
H    0.04077268   1.71122590  -2.31824779
H   -0.65720938   1.40481782  -1.01026066
O   -1.57455573   1.81425783   0.42577407
H   -1.73339063   0.92345098   0.73797030
H   -0.89442208   2.15456508   1.00701502
O    1.21814672  -0.09222327   0.55044445
H    0.39390923  -0.44098975   0.88989452
H    0.97710610   0.33719098  -0.27036897
