21
Energy:   -234.43440472
O   -1.69599245   1.92234831   0.38569675
H   -2.36673509   2.59832193   0.48262882
H   -1.75882075   1.40504127   1.18861510
O    0.05905571  -1.14837938   0.93062601
H   -0.51660107  -1.01744779   0.17716198
H    0.78661068  -1.66836187   0.58928480
O    1.04231520   1.34194751   0.21381086
H    0.85988877   0.51849781   0.66645094
H    0.19925595   1.79462681   0.19005377
O    1.68736008   0.07741126  -2.13159863
H    2.39803973   0.56455122  -2.54856497
H    1.48083998   0.58106622  -1.34425310
O    2.02518556  -2.24322134  -0.57870354
H    2.05087337  -3.00476485  -1.15803372
H    1.96114313  -1.49357673  -1.17044958
O   -1.64026035   0.24972141   2.55268642
H   -1.81596830  -0.18024786   3.38963623
H   -1.00222577  -0.31803725   2.12048990
O   -1.36704775  -0.33043488  -1.23011107
H   -0.81560766  -0.07699505  -1.97032315
H   -1.63171211   0.49925272  -0.83286667
