21
Energy:   -232.63402562
O   -1.57555158   0.24015732   1.29225746
H   -1.58475767  -0.36952690   0.55440094
H   -0.87860172  -0.08397871   1.86272093
O    1.61454118   1.48408843  -0.36961683
H    0.92197906   2.08119510  -0.08668011
H    1.29037158   1.11202630  -1.18980930
O    0.52599482  -2.62497756   0.69023865
H    1.13077450  -1.92682327   0.94134414
H    1.02475327  -3.43194577   0.81780888
O    2.11651975  -0.52047662   1.38096464
H    2.91482332  -0.29417227   1.85817488
H    1.99232735   0.20155344   0.76494461
O   -0.22795803   0.71923149  -2.27080440
H   -0.60913169   1.42467724  -1.74803792
H   -0.60640675  -0.08091340  -1.90641920
O   -1.04304728   2.46335216  -0.18861800
H   -1.29077712   1.74570206   0.39434007
H   -1.75477952   3.09779958  -0.10408675
O   -1.33911945  -1.42198982  -0.89500776
H   -0.67910523  -1.92853464  -0.42169452
H   -1.98182634  -2.07176941  -1.17951818
