21
Energy:   -241.46342502
O   -2.13118871  -0.23350945   0.67729996
H   -1.46949565   0.14418130   1.25673403
H   -2.75707721  -0.65199298   1.26837269
O    1.33461243  -2.48038224   0.44715023
H    1.64356153  -1.58082400   0.55474794
H    2.11760068  -3.01856770   0.56341571
O    0.74028094   0.60494534  -1.91235729
H    1.02192621   0.55496158  -2.82581742
H    0.24978348  -0.20422557  -1.76783552
O   -0.13665441   1.36581817   1.81198840
H   -0.02092933   2.06475493   2.45567075
H   -0.41111396   1.81753874   1.01395812
O    1.99242227   0.14345284   0.53110116
H    1.73082486   0.38349673  -0.35781817
H    1.34380243   0.56560940   1.09440214
O   -0.64538799  -1.58735236  -1.22241876
H   -1.26279512  -1.22021185  -0.58976708
H   -0.00743975  -2.06061000  -0.68830164
O   -1.10897083   2.15896223  -0.56754310
H   -1.78223514   1.48720373  -0.45943420
H   -0.46616157   1.76207661  -1.15534401
