21
Energy:   -239.05551696
O   -1.67483272   1.77669355  -0.64513187
H   -2.47786580   2.29576873  -0.68907139
H   -1.92562181   0.98669212  -0.16634756
O    1.78515529  -0.36708479  -1.22954839
H    1.63727720   0.45253576  -0.75775812
H    0.94119813  -0.56632258  -1.63485379
O    0.23712754  -0.26453705   1.99582523
H    0.84456107  -0.96312802   1.75245923
H    0.57888513   0.51438377   1.55683097
O    1.94093375  -2.07805600   0.85574880
H    1.94764793  -1.54580518   0.06020129
H    2.73942208  -2.60298018   0.80004581
O   -0.83427330  -0.64457614  -1.97933849
H   -1.22859543  -0.97302305  -1.17133816
H   -1.08543684   0.27854253  -2.01097166
O    0.91943129   1.82103075   0.27018365
H    1.25585158   2.71368162   0.34909917
H    0.03461897   1.92802093  -0.07894684
O   -2.01483500  -0.66239676   0.59448356
H   -2.57591231  -1.28852748   1.05206899
H   -1.24061271  -0.58215302   1.15159454
