21
Energy:   -233.13015000
O   -1.20649593  -2.57864560  -0.42542570
H   -1.91911917  -2.78849255  -1.02905160
H   -0.46711101  -2.36154435  -0.99323627
O    1.23367860   2.59105057   1.26950573
H    0.29116834   2.42610515   1.24306200
H    1.31419799   3.53962696   1.16974945
O    0.94423911  -1.67117218  -1.86459573
H    1.28945561  -1.10149252  -1.17719301
H    1.72152114  -2.04968193  -2.27544227
O    1.44493824   0.06948279   0.21667132
H    0.77928448  -0.29418702   0.80052163
H    1.64038827   0.93185181   0.58321027
O   -0.40647664   1.07578515  -1.57251588
H   -0.42177670   0.37434581  -2.22365382
H    0.31800230   0.84698178  -0.99026925
O   -0.75062581  -0.84804013   1.61398653
H   -0.81852988  -1.33029613   2.43803145
H   -1.01107278  -1.48001582   0.94390747
O   -1.34974117   1.80350966   0.92535084
H   -1.31218929   0.91501041   1.27945646
H   -1.26432608   1.68847527  -0.02106514
