21
Energy:   -237.22450189
O    0.54597161  -1.97463191  -0.49358655
H    0.48166001  -1.35934773  -1.22401194
H   -0.23619789  -1.80604306   0.03179000
O    1.31612883   0.46999082  -1.85033816
H    1.89255521   0.77604621  -2.55054853
H    1.89757218   0.33719979  -1.10165797
O    0.28258914   0.81976213   1.74264634
H    1.14588460   0.51028023   1.46846801
H    0.00715031   1.41291185   1.04369091
O   -2.77344234   0.47000699  -0.64258588
H   -2.43291686  -0.16314077  -0.01060632
H   -3.68841567   0.59306524  -0.38977703
O   -1.48266021  -1.12741203   1.19508616
H   -0.89144785  -0.43030296   1.47923178
H   -1.71478710  -1.58860675   2.00109385
O   -0.53374035   2.05136094  -0.54490982
H    0.06539401   1.58178239  -1.12522513
H   -1.37869636   1.62005762  -0.67241917
O    2.47937679  -0.40148219   0.52265457
H    1.87717824  -1.09878780   0.26312875
H    3.23136788  -0.86067462   0.89666467
