21
Energy:   -242.47082726
O   -0.36766093   0.60536991   2.15145988
H   -0.51363786   0.79308624   3.07865196
H   -0.95966789  -0.12139916   1.95763953
O   -0.74706726   2.02855397  -0.20822316
H    0.15646652   2.09026658  -0.51814269
H   -0.67533759   1.64458241   0.66564900
O   -1.89567798  -1.47705768   1.34941331
H   -2.77040050  -1.48199981   0.96073872
H   -1.32285045  -1.80336542   0.65542215
O    1.84852404   1.49014977  -1.19365924
H    1.90483992   0.79642698  -0.53653744
H    2.71971046   1.88667774  -1.19928513
O   -0.46368672   0.12871269  -2.18713214
H    0.41989273   0.47857178  -2.30166520
H   -0.89106199   0.74588192  -1.59325979
O    1.70673179  -0.46666764   0.65829890
H    1.11163045  -0.08732570   1.30497188
H    1.19452873  -1.15649126   0.23637088
O   -0.13928017  -2.07129522  -0.68254423
H   -0.29722765  -1.33538663  -1.27391805
H    0.01296792  -2.81712617  -1.26287910
