21
Energy:   -242.47004338
O    2.05728543  -0.66362439  -0.59264712
H    1.27231277  -1.16470300  -0.81393879
H    1.78758449   0.25152361  -0.67009001
O    1.70729564  -0.07224129   2.02189728
H    2.44445749  -0.28983262   2.59240431
H    1.96194075  -0.40762188   1.16229994
O    1.08282959   1.84839175   0.02051477
H    1.32478054   1.53263408   0.89114022
H    0.12641241   1.88411407   0.03541198
O   -0.92747545  -0.76400732   1.49095348
H   -1.28026430   0.06841967   1.17656968
H   -0.07076005  -0.53969315   1.85420783
O   -1.66694800   1.54293559   0.12881212
H   -1.75381533   1.11109461  -0.72101097
H   -2.41499284   2.13851385   0.17294050
O   -1.67454218   0.14340696  -2.18585521
H   -1.27272782  -0.65250666  -1.83757575
H   -1.18720041   0.32657784  -2.98908511
O   -0.40347126  -1.91227769  -0.88177310
H   -0.57465694  -2.85342490  -0.84757890
H   -0.63359098  -1.59461730  -0.00863586
