21
Energy:   -235.93934379
O    2.90175922  -0.28090278   0.43561810
H    2.46008012   0.54061215   0.65071023
H    3.74009948  -0.01153659   0.06030580
O    1.20568349   1.89029231   0.84085414
H    0.80614770   1.70753513  -0.00955919
H    1.24717045   2.84551693   0.88620393
O   -1.97748096  -1.99924265  -1.34395936
H   -1.93225835  -2.44862679  -2.18790288
H   -1.07564107  -1.99978272  -1.02315353
O   -0.68469465   0.08872020   1.76527086
H   -0.69904661  -0.01851845   2.71633644
H   -0.04284738   0.78200755   1.61159399
O    0.01897433   1.03215077  -1.39832683
H   -0.91979271   1.03973782  -1.21153620
H    0.28563979   0.12471618  -1.25107246
O   -2.46396212   0.54390043  -0.37101460
H   -2.05690181   0.41281551   0.48534426
H   -2.50644141  -0.33264271  -0.75324421
O    0.49803171  -1.45110613  -0.22377016
H    0.04439045  -1.08439114   0.53515116
H    1.42504331  -1.28504567  -0.05258234
