21
Energy:   -231.92393073
O   -1.44085531   1.81968583  -0.60548518
H   -1.92365538   1.17054395  -0.09386934
H   -1.98108639   2.60872927  -0.56314525
O   -2.42036968  -0.08191284   1.16266944
H   -1.77115016   0.19248931   1.81031850
H   -3.17865685  -0.34997952   1.68168069
O   -0.23091359  -1.49069852   0.07409057
H   -1.11630403  -1.24708865   0.34421990
H    0.28743259  -0.69703055   0.20690713
O    2.53384810   0.20768091  -1.78361971
H    2.14533603  -0.64991394  -1.95630812
H    2.64954599   0.59760674  -2.65010901
O    0.97848452   0.95875388   0.33327284
H    0.23880564   1.37027957  -0.11366520
H    1.62098852   0.80348937  -0.35905180
O    1.23500682  -2.16741682  -2.11914593
H    0.61914870  -2.01117853  -1.40322679
H    1.51108699  -3.07668735  -2.00408638
O   -0.35834210   0.74340587   2.73505349
H    0.21214406   0.38698125   3.41603725
H    0.22740242   0.91799531   1.99840315
