21
Energy:   -235.39689114
O   -1.75739415  -0.33768431   1.20155066
H   -2.28540817  -0.97168532   1.68680910
H   -0.85605384  -0.52579880   1.46314278
O    0.32473181   1.59418951  -1.21864012
H   -0.03483364   1.97722967  -0.41849965
H   -0.35051017   0.98518829  -1.51763451
O    0.85811309  -0.54716538   1.89554803
H    1.39580074  -0.48013301   1.10647864
H    1.04064103   0.25827445   2.37947165
O    2.16460614  -0.21891289  -0.51430173
H    3.01838979   0.03922050  -0.86165239
H    1.56890657   0.47225332  -0.80354755
O   -1.46496729  -0.43872955  -1.55827842
H   -1.68162726  -0.46206586  -0.62621312
H   -0.84326240  -1.15659793  -1.67819448
O   -0.87093197   2.28179098   1.16697386
H   -1.33276686   1.44486037   1.21684914
H   -1.55453716   2.94072316   1.28831708
O    0.61657268  -2.24554639  -1.54896673
H    1.24365588  -1.59716490  -1.22865445
H    0.87146439  -3.06026762  -1.11596397
