21
Energy:   -237.89179661
O   -2.27713567   0.16750682   0.93965175
H   -3.12306806  -0.17325197   1.23036413
H   -1.90104273  -0.53942542   0.41521610
O    2.71599905  -0.34264564  -1.10003232
H    3.39135906  -0.14882738  -1.75007477
H    1.90412226  -0.02538401  -1.49554842
O    0.23916826   0.70480756   2.11654446
H    0.35302978   1.40785001   1.47701440
H   -0.68022062   0.45163149   2.03373244
O    1.31227373  -1.53046982   0.94249755
H    1.95478790  -1.18957788   0.32024352
H    1.08594778  -0.77856007   1.48989151
O    0.26274051   0.39197686  -1.98507566
H   -0.02939247   1.12660065  -1.44542942
H   -0.20405799  -0.36554226  -1.63223604
O   -0.74037182   2.20327168  -0.15619101
H   -1.19262186   3.03994643  -0.26425174
H   -1.40732629   1.61363372   0.19556267
O   -0.90543368  -1.68559190  -0.54207291
H   -0.97425583  -2.56814342  -0.90621322
H   -0.11609183  -1.71003498  -0.00117197
