21
Energy:   -235.99672042
O   -1.94633233  -0.78871891  -0.18134550
H   -2.88516482  -0.97422947  -0.16106675
H   -1.80755021  -0.34419539  -1.01762907
O    1.24880433   0.12452609  -1.66518729
H    1.38336030   0.85056031  -1.05608890
H    1.16638727  -0.64692697  -1.10456313
O   -1.00263326   1.17563409   1.54556232
H   -1.42209263   0.53332110   0.97309424
H   -0.29837691   0.69031036   1.97534798
O    1.30515379  -0.28943611   2.20618018
H    1.68401755  -0.79112913   2.92798224
H    1.13555548  -0.93996121   1.52479530
O   -1.29831008   0.43903790  -2.49573486
H   -1.38610756   1.25651686  -2.98588952
H   -0.35890659   0.35769714  -2.33100289
O    1.37942876   1.93995880   0.35874804
H    0.46285393   1.98018788   0.63170234
H    1.80207399   1.38902353   1.01759035
O    0.54127427  -1.91217234   0.11033651
H    0.53922626  -2.80514493  -0.23437728
H   -0.36682798  -1.62100276   0.02785971
