16
Energy:   -463.30497836
O    0.90115609   0.91758518  -1.12006310
H    1.42963957   1.47313713  -1.69303701
H    1.22324763   0.03084083  -1.28184487
O    1.64684256  -1.77173815  -1.22159364
H    1.58439127  -2.28318673  -2.02828568
H    2.49722587  -2.00938588  -0.85199434
O   -0.57798130  -1.27277631   0.57292643
H    0.11504433  -1.65020155   0.03117232
H   -1.21094416  -1.98253329   0.68171467
O    0.14241085   0.99287164   2.20092121
H    0.62948673   1.09816994   3.01817343
H   -0.08048858   0.06241809   2.17256811
O   -2.24608053   1.65533124  -0.17334434
H   -2.56892889   1.66308515  -1.07442184
H   -3.02593061   1.80092412   0.36225664
Li  -0.43553501   1.11764700   0.29723782
