16
Energy:   -483.50696692
O    0.78757412  -2.78018108  -1.12838195
H    0.21979667  -3.54592242  -1.04177475
H    1.60149635  -3.12520555  -1.49542495
O    1.19049145  -0.15590318   1.37376036
H    1.75083876  -0.01695954   2.13726374
H    1.47158420  -0.99981745   1.02016821
O    0.18440086   2.68237333  -0.04216330
H    0.95097086   3.05341249  -0.47912122
H   -0.36061377   3.43992632   0.17068492
O   -2.00497346   0.72409839   1.18910275
H   -2.88052913   0.89132174   0.84028980
H   -2.15980095   0.29424927   2.03022701
O   -0.23702010  -0.21968858  -1.32373572
H    0.08439633  -1.12076246  -1.35518701
H   -0.36439315   0.02183464  -2.24116391
Li  -0.21521608   0.81253765   0.34743444
