16
Energy:   -483.24548634
O    1.50051656  -1.01647083  -1.97298852
H    2.45028036  -1.01678574  -2.09207028
H    1.15022763  -1.23262986  -2.83716720
O   -2.75643190   0.95696825   0.78715434
H   -2.92561504   1.20252593   1.69672035
H   -3.61164547   1.01177362   0.36072970
O   -0.60567391  -1.48154996   0.64228327
H   -0.55007235  -2.10707650   1.36467988
H   -1.53449575  -1.25592291   0.59115332
O   -0.29269661   1.28800392  -0.44619358
H   -0.27725303   2.06990502  -0.99812112
H   -1.16154056   1.29486531  -0.04457814
O    2.35590936   0.09795779   0.81898537
H    2.51497683   1.00371649   1.08456128
H    2.95563365  -0.41876047   1.35709770
Li   0.76454561  -0.35174906  -0.24703623
