16
Energy:   -484.89185982
O   -1.36640612   0.74724314  -0.64115260
H   -1.91473986   1.52310613  -0.75776549
H   -1.94523098   0.01186930  -0.84219722
O    1.09582009   2.18208832   1.02615215
H    1.88461025   2.71797996   0.94331438
H    0.65462298   2.52309803   1.80415558
O    0.55745695  -1.00727931   1.05069544
H    0.95314229  -1.43065651   1.81254629
H   -0.21854740  -1.53404585   0.85947277
O    1.71785901   0.50199949  -1.61840048
H    1.80956236   1.12048997  -2.34317070
H    2.21381464  -0.26820751  -1.89596314
O   -1.77658172  -2.26406229   0.17712766
H   -1.70365665  -3.10543805  -0.27342823
H   -2.55810147  -2.35104813   0.72292267
Li   0.53218786   0.61532979  -0.02398517
