16
Energy:   -483.53713625
O   -0.71183941   1.06023586  -0.81417453
H   -0.90946291   1.86256945  -1.29732835
H   -1.54246401   0.58526795  -0.78771509
O    1.96444675  -0.94190151  -1.06073943
H    2.28779624  -1.82721187  -0.89369897
H    2.29623185  -0.72566783  -1.93217129
O   -0.08829434  -0.98066950   1.44197476
H    0.18115348  -1.11431952   2.35069220
H   -0.98290000  -1.31907947   1.40467525
O   -2.85422678  -0.68760492  -0.39370279
H   -3.18344682  -1.27916202  -1.07039046
H   -3.58317130  -0.59537285   0.21978314
O    1.89681329   1.62603261   0.79067931
H    1.58198032   2.49805164   1.02878615
H    2.83591539   1.65155367   0.97416710
Li   0.78790337   0.16438194   0.06632805
