16
Energy:   -464.09804665
O    2.69357937  -0.05976556   0.41301194
H    3.47232149   0.08922522  -0.12326625
H    3.02562741  -0.47823750   1.20727712
O   -3.17655384   0.71566017  -0.65852631
H   -3.77375990   1.23000270  -0.11536101
H   -3.73008669   0.36111729  -1.35432268
O    0.67363032  -1.70068811  -1.17547492
H    1.04096293  -1.67133305  -2.05889831
H    0.45037143  -2.62140910  -1.03887262
O    0.13384226  -0.41266068   1.86069509
H    0.50240343  -0.01301918   2.64852831
H   -0.78923792  -0.55249835   2.07188280
O   -0.18890405   1.44653099  -0.58146510
H    0.05756898   2.35057832  -0.38606471
H   -1.14392868   1.46608893  -0.64292475
Li   0.76492841  -0.16201338   0.01262320
