16
Energy:   -461.25435951
O    1.52924445  -0.15711647   2.46262611
H    1.27395984   0.38752007   3.20722846
H    2.25876266  -0.68367680   2.78938174
O    1.50189658  -0.63024093  -0.98123768
H    1.13744908  -0.69438064  -1.86401510
H    2.16177098  -1.32258916  -0.94313840
O    0.71781982   1.94943180   0.44123516
H    1.44685055   2.56604725   0.50855112
H   -0.00136304   2.46675669   0.07876746
O   -2.38720299  -0.34949132  -2.29500859
H   -3.29766109  -0.55552287  -2.08323300
H   -2.34045183  -0.42108432  -3.24838188
O   -1.20756286  -0.75857061   0.55167550
H   -1.98330047  -1.00373948   1.05601193
H   -1.47934856  -0.84186692  -0.36234097
Li   0.65981596   0.02146561   0.65873032
