16
Energy:   -462.34976585
O    0.30260734  -1.38966794   0.46475213
H   -0.27965161  -1.04877369   1.14372008
H    0.73229436  -2.14159733   0.87243229
O    2.25872459   0.80800845  -1.15563911
H    2.83674948   1.17564874  -0.48708867
H    2.75672461   0.88080842  -1.96984301
O   -1.54486372  -0.05829041   2.21824502
H   -2.44894553  -0.36681583   2.27890807
H   -1.31057968   0.17629678   3.11619361
O   -0.24536978  -0.96544279  -2.20833441
H   -0.29219780  -1.63779598  -1.52864318
H   -0.70787236  -1.34625005  -2.95486576
O   -0.54045143   1.64617836   0.25092805
H   -1.00165292   1.32932228   1.02754074
H   -0.94596545   2.49180239   0.05932893
Li   0.34348249   0.47861227  -1.00709142
