16
Energy:   -460.59855128
O   -1.61412335   0.02553611  -0.29900398
H   -1.57424601   0.47601063   0.54462767
H   -2.53659094   0.06884093  -0.55081758
O    0.20755437  -0.84463212  -2.98965449
H   -0.18512525  -0.35154674  -3.71000258
H    0.80626682  -1.45741512  -3.41658803
O    1.32261229   0.86732831   0.92821454
H    0.55508645   1.12577956   1.43844868
H    1.98213941   1.52963775   1.13461714
O    1.39297984  -1.65996818  -0.07563785
H    1.69223386  -0.93849984   0.47768151
H    1.93890094  -2.40268716   0.18237478
O   -1.21267713   1.29482107   2.15083845
H   -1.49269112   2.20015643   2.28571577
H   -1.34753354   0.87295469   2.99941040
Li   0.01421581  -0.71432645  -1.06536689
