16
Energy:   -485.47826588
O   -0.73129518  -0.69370771   2.81876802
H   -1.43337121  -1.30991309   3.02760296
H   -0.35254721  -0.46479825   3.66752138
O    0.76129353  -1.08739829   0.52416540
H    0.28908250  -1.02958873   1.35477159
H    1.44786931  -1.73517349   0.68301385
O    1.74204768   0.94650732  -1.80163611
H    2.39649163   1.58891807  -1.52733083
H    1.98940511   0.71970758  -2.69807798
O   -0.94807900  -0.64952518  -2.08741506
H   -0.91604501  -1.60533139  -2.12791386
H   -1.59863597  -0.40313262  -2.74490892
O   -0.71973015   1.60288513   0.34363348
H   -1.06738642   1.36076042   1.20197059
H   -1.11253676   2.45569079   0.15746873
Li   0.22167401   0.26987519  -0.76824887
