16
Energy:   -461.26663174
O   -0.70101321   0.18897821   1.45274544
H   -1.07716882   0.28378498   2.32781714
H   -1.40128495   0.46130912   0.85971321
O   -2.54358735   0.78470605  -0.64952807
H   -3.29946611   0.21451805  -0.79011542
H   -2.86662488   1.66416197  -0.84557880
O   -0.00073953   0.22746373  -1.60416595
H   -0.92393026   0.38398992  -1.40554499
H    0.09939167   0.50567029  -2.51455416
O    2.60260334   0.59523082   1.33330562
H    2.67811653   1.52861112   1.13498562
H    3.42756367   0.37421606   1.76553793
O    1.04386809  -2.06629260  -0.26886074
H    1.21821189  -2.98011464  -0.49417245
H    0.61686335  -1.70487472  -1.04556913
Li   1.02440893  -0.35416069   0.67691959
