16
Energy:   -460.90557357
O    1.90452985   1.91664836   1.02555950
H    2.37412585   1.99067329   1.85636137
H    2.16863043   2.69225921   0.53067512
O   -0.79570579   1.26139334   0.82314935
H    0.06576632   1.65864167   0.95078714
H   -1.30027389   1.53071967   1.59068189
O   -0.81291423  -2.92880111  -0.50908083
H   -0.32607003  -3.67108532  -0.15099044
H   -1.62573697  -3.31167731  -0.83916697
O    1.38606022  -0.54996082  -0.20899710
H    1.63265925   0.25965805   0.23814723
H    2.21142406  -0.89967561  -0.54471416
O   -1.92098696   0.01993169  -1.37728543
H   -2.50476464   0.28988825  -2.08619933
H   -1.88967101   0.77601208  -0.79111684
Li  -0.49243882  -0.99411440  -0.42088613
