16
Energy:   -483.93618932
O   -0.78205565   1.27860672  -0.31321215
H   -0.14298306   1.43269808  -1.00896636
H   -1.47073374   1.92399348  -0.47268085
O   -1.85903417  -1.71572677   0.28655772
H   -1.73056784  -2.59560524  -0.06776153
H   -2.80944970  -1.60736795   0.32120657
O    1.32865843  -0.98650046  -0.20279760
H    1.66152856  -1.81244639  -0.55385694
H    1.83748879  -0.31206191  -0.65274887
O   -0.18740027  -0.13755798   2.57510852
H   -0.52034218  -0.69867531   3.27548618
H    0.21289673   0.60299394   3.03071473
O    1.43006129   1.46597449  -2.04689179
H    1.37924300   1.38472691  -2.99928256
H    2.05407757   2.17671147  -1.89962172
Li  -0.40979419  -0.39229536   0.63800677
