16
Energy:   -461.47337946
O    0.38932012   1.04640608   1.68430704
H    1.19271216   1.46132578   1.99836871
H   -0.31579245   1.55313796   2.08713568
O   -1.19775270  -0.12046375  -0.67325438
H   -1.95044416  -0.64698036  -0.94245257
H   -1.23049855   0.65151126  -1.23824478
O    1.94648968  -0.92057306   0.00319380
H    2.32157840  -0.79300522  -0.86816534
H    2.52839240  -1.55297383   0.42472712
O   -0.92512081   2.25326263  -2.83005533
H   -1.65870551   2.44584061  -3.41400658
H   -0.33433983   2.99935622  -2.93278810
O   -0.14790161  -2.27220932   1.84760583
H   -0.61084479  -2.29864593   2.68499258
H   -0.15874766  -3.17812441   1.53868503
Li   0.13101005  -0.69987570   0.69100688
