16
Energy:   -462.36186598
O   -1.10313594  -1.57416390   2.26413613
H   -2.00034383  -1.65304313   2.58821622
H   -0.65245718  -2.34174831   2.61617970
O    0.73446254  -0.70717389  -1.18330697
H    0.49616667   0.04129738  -1.73033319
H    0.75101644  -1.44992750  -1.78685886
O    1.85215779  -0.77910051   1.35701148
H    2.70341122  -0.80785761   1.79378657
H    2.06223347  -0.68667711   0.42773328
O   -1.05670466   1.07194927   0.24246651
H   -0.84989736   1.43650485  -0.61809251
H   -1.67546684   1.69443411   0.62440607
O   -0.36520868   1.81450115  -2.28795067
H   -0.94854157   1.79489826  -3.04661418
H    0.09050634   2.65340251  -2.35723395
Li  -0.08101384  -0.46506531   0.99513636
