16
Energy:   -492.14680466
O   -1.88760871   0.76406078   1.58699928
H   -2.69316437   0.25415753   1.50149725
H   -2.10395996   1.45055999   2.21798489
O    1.18844597   1.58467276   1.55207465
H    1.67557093   1.41610087   2.35862573
H    1.59061261   2.37391662   1.18932411
O    0.30491035  -1.42754815   0.56942225
H    0.45159923  -1.71445443  -0.33190954
H    0.45138372  -2.21210682   1.09785871
O   -0.24909266   0.87782082  -1.25306833
H    0.01820231   0.13192215  -1.79011620
H   -0.56107766   1.52752498  -1.88297444
O    0.57543523  -1.62483127  -2.20847052
H   -0.00698794  -2.17858417  -2.72844439
H    1.43688321  -1.73920678  -2.60979019
Li  -0.17379203   0.47476325   0.67244506
