16
Energy:   -486.08604833
O    2.53787298  -0.41169468  -0.47421415
H    3.35000617  -0.42821872   0.03214391
H    2.82467289  -0.39210997  -1.38722790
O   -0.38290908  -1.59906826  -0.19740587
H   -1.33665442  -1.53563665  -0.24818093
H   -0.18648469  -2.49256732  -0.47902394
O    0.97032478   0.03532213   2.24806073
H    0.80635279   0.80864032   2.78780513
H    1.08493051  -0.67670682   2.87743514
O   -2.67032234   0.50511374  -1.10558525
H   -3.44197359   0.77339670  -0.60677622
H   -2.96823103   0.48279760  -2.01497200
O   -0.22344147   1.44749263  -0.37397267
H   -1.09684560   1.22954227  -0.69938735
H   -0.07059235   2.34229786  -0.67760501
Li   0.76351486  -0.08587762   0.30005393
