16
Energy:   -485.66861795
O    0.11527950   1.26661934  -2.62563072
H    0.06308763   2.17501421  -2.92282868
H    0.32787733   0.76786734  -3.41447827
O    0.89103364  -2.09248920   0.58212798
H    1.79295068  -2.30220671   0.82460697
H    0.55331828  -2.89925948   0.19315254
O    1.16752977   1.15756842   0.47930425
H    1.21481121   1.52497219  -0.40331162
H    1.82073508   1.64772914   0.97860089
O   -1.36316953  -0.09133201  -0.69468759
H   -2.28870337  -0.19815183  -0.91425187
H   -0.99519962   0.39175590  -1.43459033
O   -0.88974957  -0.31983380   2.50814124
H   -1.31119820   0.41194161   2.95882700
H   -1.00532880  -1.06411263   3.09883771
Li  -0.05650617  -0.37527662   0.73328893
