16
Energy:   -486.18705270
O    2.16236897  -0.96272455  -1.68390748
H    2.23815345  -1.32538834  -2.56649659
H    2.98757767  -1.19419327  -1.25766260
O    0.64505498   1.44453233  -0.54492041
H    1.27700694   0.96478067  -1.08037061
H    0.91751180   2.35952169  -0.61415615
O   -0.45891846   0.44118046   2.52267013
H   -1.05625833   0.90620287   3.10847819
H    0.17644863   0.02738194   3.10688866
O   -2.46224739   0.61848194   0.04161973
H   -2.72818295   1.20107550  -0.66978372
H   -3.27138056   0.18377174   0.31099384
O   -0.12320063  -1.39295135  -0.23971357
H   -0.31228498  -2.33033669  -0.19743263
H    0.65674011  -1.33008485  -0.79105022
Li  -0.58544287   0.34703238   0.56689254
