16
Energy:   -485.54475014
O   -0.39476946   1.68309421  -0.37758963
H   -1.14085496   1.54137080  -0.96025827
H   -0.39235050   2.62653856  -0.21591479
O    1.42288010   0.67758274   2.08727691
H    0.98100891   0.78799672   2.92917385
H    2.35516988   0.73692934   2.29595275
O    2.23691883  -0.16503853  -0.81199410
H    2.67932840  -1.00368963  -0.94302827
H    2.65376591   0.42664196  -1.43840015
O   -2.60235667  -0.79988300  -1.19671584
H   -3.47765778  -0.53130466  -0.91752863
H   -2.73732508  -1.20408455  -2.05382522
O   -0.46652418  -1.39521217   0.42653502
H   -1.26945788  -1.32919104  -0.09035040
H   -0.55301128  -2.22283837   0.89959603
Li   0.67469403   0.19265430   0.33551722
