16
Energy:   -484.12301090
O    1.41548058  -0.93178818   0.05882846
H    1.95891514  -0.18990597  -0.20673041
H    1.97633591  -1.69722443  -0.06679194
O   -1.01990422  -1.09749614   2.31169212
H   -0.56527187  -0.85839405   3.11938727
H   -1.78161197  -1.59797565   2.60418728
O   -0.59474984   1.31896811   0.18405121
H   -1.16634675   2.06710216   0.35669030
H    0.11077327   1.67551299  -0.35571239
O    1.58303946   2.00522148  -1.35904180
H    1.61646580   2.04959271  -2.31462838
H    2.07065107   2.77496549  -1.06585086
O   -1.51784871  -1.48116080  -0.96011528
H   -2.29186316  -2.04399837  -0.97875273
H   -1.30118526  -1.34045793  -1.88179391
Li  -0.47344543  -0.62182168   0.48056719
