16
Energy:   -484.98125219
O    0.11265787   1.84340927  -1.43862882
H    0.87162637   2.40164188  -1.26958732
H   -0.55109474   2.43942330  -1.78566136
O    1.28072807  -0.12156807   0.73577219
H    2.19660476  -0.00891434   0.99015548
H    0.80348012  -0.15295675   1.56491692
O   -1.63088794  -0.63307595  -0.11048999
H   -2.47811766  -0.75398474  -0.53922617
H   -1.81106709  -0.76906369   0.81971141
O   -0.43047606  -0.10409639   2.90162315
H   -0.79930530   0.69200022   3.28428100
H   -0.27642231  -0.68090716   3.64981338
O    0.71780277  -1.13181707  -2.34903797
H    0.80664293  -2.08395214  -2.39120544
H    1.07713321  -0.82023686  -3.17971917
Li   0.09417507  -0.04010033  -0.83509612
