16
Energy:   -463.24016819
O   -2.00107466   2.10253293  -0.53127887
H   -2.39046908   2.87253314  -0.11690766
H   -2.51752106   1.97091114  -1.32638307
O    0.03090816  -0.14028329  -1.47350387
H    0.39508715  -1.00073801  -1.26560200
H   -0.05402993  -0.13962725  -2.42692767
O    0.74162378   1.86404383   1.40269293
H    0.97331808   2.51538461   2.06473883
H    0.99222895   1.02634431   1.79216489
O    1.05637694  -2.49622237  -0.69098676
H    0.61153520  -3.33898969  -0.78093629
H    1.95413720  -2.66713291  -0.97567600
O    0.16094085  -0.85710808   1.33243035
H    0.55579627  -1.52865124   0.77623719
H   -0.08204659  -1.32135481   2.13346963
Li  -0.47453409   0.99275311   0.07329687
