16
Energy:   -460.93040839
O    1.52575309  -0.09951331  -0.91313981
H    2.27904544  -0.36878996  -1.43875618
H    1.01228339   0.45809613  -1.49765023
O   -1.64063912   0.40123775   0.07851240
H   -1.30088699   0.78983725  -0.72758360
H   -2.57264809   0.61937508   0.07582261
O    1.23579005   0.46556844   1.82060293
H    1.64293358   1.07649728   2.43479505
H    1.78103392   0.51552318   1.03546250
O   -0.63891336  -2.37892057   1.68572745
H   -0.18762766  -2.74564469   2.44604744
H   -1.16276467  -3.10391037   1.34484413
O   -0.48946153   1.43690848  -2.21342492
H   -0.41136375   2.38347444  -2.33235966
H   -0.82108036   1.11620491  -3.05212035
Li  -0.27904132  -0.53077099   1.13136485
