16
Energy:   -485.39115801
O   -1.40666975  -0.64041325   2.00919766
H   -0.84404720  -0.83502878   2.75873920
H   -2.29114315  -0.84290358   2.31405224
O    1.02003861   1.08030724   0.88346549
H    1.24873450   1.92371768   1.27409173
H    1.85501801   0.71971401   0.58511374
O   -0.29617731  -0.94556134  -1.09280843
H    0.64331956  -1.03158494  -1.25460284
H   -0.69804336  -1.60883139  -1.65388629
O   -2.00918144   1.48968809  -0.44008631
H   -2.01654331   1.61960749  -1.38839987
H   -2.78479670   1.95577726  -0.12797461
O    2.46396129  -0.90747883  -1.23719994
H    2.97675966  -1.68838780  -1.02875127
H    2.89625274  -0.53452030  -2.00548237
Li  -0.71399163   0.23022937   0.38081913
