16
Energy:   -484.21232911
O    0.42060484  -0.77423865  -1.18332001
H    0.93967705  -1.32574395  -0.59796730
H    0.49865535  -1.19369377  -2.04017319
O    1.84884710  -2.17306759   0.64530347
H    1.80834504  -3.08883794   0.92090482
H    2.78439768  -1.97313421   0.61362377
O    0.25956618   2.44573782  -0.56738056
H    1.15715589   2.67952463  -0.80382989
H   -0.22563522   3.26891757  -0.62383013
O   -2.38901693   0.76543275  -0.60432259
H   -2.80349546   0.72756635  -1.46630027
H   -3.11681121   0.70732639   0.01468548
O   -0.27281695  -0.06745015   1.63480750
H   -0.45695021   0.26550502   2.51313981
H    0.03806000  -0.96146940   1.77734508
Li  -0.47157405   0.66594555  -0.21632940
