16
Energy:   -485.91466919
O    0.47922847  -0.93813025   1.08168960
H    1.29221925  -0.45419414   1.22689175
H    0.56225772  -1.71726413   1.63149719
O   -1.06430940  -1.67163335  -1.69403810
H   -1.32954516  -2.57282633  -1.51037251
H   -1.15046982  -1.58485452  -2.64339454
O    2.59883702   0.86094987   1.16037294
H    2.65837303   1.28949343   2.01421000
H    3.50796603   0.76162286   0.87779476
O   -2.45127012   0.29654678   0.30085922
H   -2.67154247   0.69897651   1.14095580
H   -3.24661704   0.38630410  -0.22411578
O    0.28033423   1.32958306  -0.97184771
H    1.14736629   1.48010779  -0.59524505
H    0.07171467   2.14512173  -1.42748617
Li  -0.67535531  -0.27389313  -0.33910918
