16
Energy:   -464.05990072
O    0.85665706  -0.57674480   1.24910321
H    1.22888600  -0.98868355   2.02883645
H    1.50254406   0.08212586   0.99424780
O   -0.31945103   1.34500984  -0.83097568
H   -0.58883456   2.14098047  -1.28933703
H    0.62111722   1.45505074  -0.69149731
O    2.36027208   1.44060644   0.04105794
H    2.57088782   2.26331814   0.48266672
H    3.07444103   1.31382634  -0.58353902
O   -2.19671068  -1.44731873   1.36260152
H   -2.87821424  -2.03142046   1.03002084
H   -2.40640239  -1.33746806   2.29006800
O   -0.99869488  -1.10879889  -1.73872656
H   -0.79875301  -0.21371071  -2.01271972
H   -1.08598925  -1.59661958  -2.55765422
Li  -0.87879874  -0.62101050   0.20359599
