16
Energy:   -486.76646333
O    1.26717339  -0.50550583   0.88309995
H    1.89286273  -0.16161286   0.24554029
H    1.81021300  -0.82824450   1.60225193
O   -1.55514306   0.99709101   1.65040277
H   -1.79797003   1.90781121   1.48350272
H   -1.90840548   0.81005549   2.52014712
O   -0.53546820   0.37311359  -1.39084293
H   -0.99121855   0.33810619  -2.23185300
H    0.33759350   0.70225950  -1.60452046
O   -1.48230408  -2.03559328   0.74103817
H   -2.38827177  -2.34413907   0.72510461
H   -0.96397262  -2.82187617   0.91227940
O    2.05787927   1.09831220  -1.79835545
H    2.57357010   0.75353930  -2.52734548
H    2.39096924   1.98609341  -1.66748357
Li  -0.64540249  -0.25918988   0.46297190
