16
Energy:   -460.91043272
O   -1.87244907   1.25719863  -0.42536181
H   -1.81227611   0.94630251   0.47794027
H   -2.81159726   1.35107504  -0.58479753
O   -0.20980489   0.18248503   1.59988837
H    0.01621207   0.49312677   2.47661518
H   -0.19120993  -0.77187175   1.67122704
O    0.72597970  -0.94175349  -1.20537436
H    0.64149877  -1.60968724  -0.52496322
H    1.10743009  -1.40546040  -1.95082949
O    0.22437263  -2.64644933   0.95448223
H    1.00306992  -3.09003315   1.29077936
H   -0.46720222  -3.30651578   1.00210946
O    1.04116804   2.51604374  -1.24305484
H    0.92878512   3.30134185  -0.70741614
H    1.66907450   2.77375146  -1.91800080
Li   0.06372677   0.84573283  -0.83339853
