16
Energy:   -462.96718968
O   -1.35055873   2.83499824  -1.96051576
H   -1.96652767   2.80475821  -2.69256744
H   -1.05703249   3.74561428  -1.93131611
O    2.04133211  -0.18604854  -0.13596001
H    2.54181878   0.62616702  -0.21374710
H    2.68189288  -0.87896508  -0.29652284
O   -0.16738578   0.25367759   2.21057042
H   -1.04947026   0.24596915   2.58218769
H    0.37355640   0.66457381   2.88494251
O   -0.88859642  -0.21436373  -0.88925131
H   -0.99034213   0.66928201  -1.24287521
H   -1.38308893  -0.77172834  -1.49012875
O    0.33659237  -2.66156979   0.83943061
H    0.68175494  -3.32862512   0.24602362
H   -0.04766739  -3.15851965   1.56166126
Li   0.29254842  -0.74425840   0.55607712
