16
Energy:   -460.17608846
O   -2.60656027   0.50891645  -1.82341382
H   -3.00707089   1.32658835  -2.11877083
H   -2.96466303  -0.15874060  -2.40841666
O   -0.72039251  -1.39352815   0.22917677
H   -1.16754803  -2.21105788   0.44810351
H    0.19545019  -1.55224318   0.45781082
O    1.97843233  -1.71299527   0.85782317
H    2.25846741  -1.91239542   1.75116061
H    2.51866912  -2.27783513   0.30525463
O    1.75580016   0.96501029   0.13914722
H    2.00230143   0.08319706   0.41820707
H    2.58208652   1.37616108  -0.11469865
O   -0.74791969   1.93093515   0.56174269
H    0.20449785   1.83537082   0.56136742
H   -0.90967323   2.72061399   1.07795483
Li  -1.33767231   0.34865875  -0.36440487
