16
Energy:   -484.41705511
O   -1.86664507   0.00079758  -1.33860527
H   -2.12155711   0.21209185  -2.23671798
H   -2.49315598  -0.66809032  -1.06237185
O   -0.72539634   2.57406951   0.35056984
H   -0.09499654   3.18435489   0.73316584
H   -1.55947621   3.04297236   0.37650705
O    1.46332833  -2.50102986   0.82326968
H    1.18726641  -3.36481782   0.51685164
H    2.28747636  -2.66152819   1.28289143
O    1.31950927   0.60289233  -1.16047104
H    1.80468202   1.26478823  -1.65315052
H    1.87393880  -0.17660484  -1.19545549
O   -0.31165561  -0.48282248   1.31764219
H   -0.63174108  -0.54854158   2.21734110
H    0.29713891  -1.21568527   1.22537515
Li  -0.40915197   0.71207843  -0.21736190
