16
Energy:   -462.11083641
O    0.45333349  -1.67816642  -1.61386948
H    1.10808433  -1.06618046  -1.95003368
H    0.70713421  -2.52572991  -1.97918192
O   -0.58628544  -0.18641213   1.43660078
H   -1.03838476  -0.31720451   2.27010627
H    0.14759519   0.39005702   1.64951953
O    1.03654444   1.03881353  -1.01392831
H    1.30378920   1.77223531  -1.56791801
H    1.41404090   1.23562455  -0.15661058
O   -2.67146960  -0.95897949  -0.78634742
H   -3.26252579  -1.00518167  -0.03484906
H   -3.24622448  -1.03026868  -1.54845406
O    1.62727361   1.48445027   1.67285871
H    1.34551644   2.25819413   2.16088041
H    2.40241011   1.17445899   2.14115420
Li  -0.74906061  -0.47571816  -0.57929092
