16
Energy:   -460.33105068
O   -2.80857678  -0.85196038  -1.04269915
H   -3.52316365  -0.44490484  -1.53249834
H   -2.89620073  -1.78781418  -1.22361777
O   -0.47971286  -0.75251462   1.37746025
H   -0.76431203  -1.21049387   2.16833961
H    0.47422551  -0.71971208   1.44927548
O   -0.87959076   1.87200508  -0.68232764
H    0.02479265   1.73967354  -0.96660016
H   -1.02490731   2.81357402  -0.77486345
O    1.43067710   0.43016751  -1.12682843
H    2.06756986   0.39698962  -1.84062020
H    1.92251852   0.15443298  -0.35333354
O    2.30330379  -0.53041960   1.37798552
H    2.78228253   0.05479331   1.96478793
H    2.81823899  -1.33727957   1.37087258
Li  -1.36513043   0.09263125  -0.12711257
