16
Energy:   -484.91960275
O    1.54780234  -1.91307231   1.01033682
H    1.84562935  -2.23538688   1.86100963
H    1.84971308  -2.57186872   0.38498168
O    1.17638931   0.72498353  -0.89277335
H    0.65239990   1.16149346  -1.56443251
H    2.07289307   0.76190752  -1.22616423
O   -1.28603966  -0.84659835  -0.09253684
H   -1.92527055  -1.55906537  -0.09507818
H   -1.58718844  -0.25153323  -0.77915082
O   -1.75881226   1.09560532  -2.07371203
H   -1.96526430   0.82238364  -2.96755727
H   -2.10002465   1.98769359  -2.01058937
O    0.37219266   0.79201607   2.29085100
H   -0.31049634   0.88941614   2.95468894
H    0.99861972   1.48874065   2.48679954
Li   0.43915419  -0.30051158   0.65547622
