16
Energy:   -461.80627103
O   -0.90914573  -1.91583531   0.77041209
H   -1.56347634  -2.60889259   0.85847406
H   -0.20265524  -2.17630382   1.36139364
O   -0.47036608   3.02004428  -2.32947089
H   -0.04087602   3.13978739  -3.17648431
H   -0.70083203   3.90601451  -2.04987467
O   -1.57559570   0.72644491  -1.41697728
H   -2.42491576   0.62755710  -1.84721963
H   -1.22309457   1.54466190  -1.76697122
O    1.47236044  -2.03280848   2.24496926
H    2.12673089  -2.70947617   2.07132599
H    1.46679128  -1.94326404   3.19795542
O    1.21430197   0.20619042   0.57107914
H    1.54312540  -0.43581320   1.20031547
H    1.90266678   0.86958117   0.52313694
Li  -0.52839670  -0.24826630  -0.14066411
