16
Energy:   -486.08810902
O    0.18764827  -2.44399766  -1.53675127
H   -0.04388237  -2.44237853  -2.46552616
H    0.49711535  -3.33395513  -1.36811655
O   -0.56884205   2.29315903  -0.61212183
H   -1.29636623   2.30709391  -1.23401107
H   -0.11937906   3.12697074  -0.74986400
O   -0.03765577   1.21564800   2.34473361
H   -0.08106964   0.61216634   3.08645927
H   -0.01928843   2.08548854   2.74382247
O   -1.29069058  -0.85957446   0.12796796
H   -0.81411790  -1.54110713  -0.34597671
H   -2.11900988  -1.27204917   0.37288347
O    1.62727024   0.01102800  -0.15678563
H    2.53413556   0.25648097   0.02646276
H    1.69641993  -0.75884413  -0.72136251
Li  -0.12110680   0.70588496   0.44778755
