25
Energy:   -808.73313965
O   -1.29008072  -1.95740624   1.18549813
H   -1.74042497  -2.78685116   1.34500687
H   -0.63644466  -2.16382879   0.51738027
O    1.41846876   1.91267560  -1.41969739
H    1.90389370   2.40878725  -2.07883903
H    0.82594161   1.35687453  -1.92588766
O    0.76469056  -2.06849363  -0.71141990
H    1.23351266  -2.75498209  -1.18594207
H    0.37788851  -1.52404589  -1.39712586
O    0.18368699  -0.15230423   2.61530269
H    0.29611717  -0.30318099   3.55382680
H   -0.37849110  -0.86958963   2.32257535
O   -2.08078755   0.78343160  -0.19326391
H   -2.84136138   1.30771496  -0.44403522
H   -2.44976026   0.03211440   0.27107804
O   -0.38580342  -0.05493921  -2.25648861
H   -1.09415733   0.23868940  -1.68355857
H   -0.80005751  -0.16720852  -3.11207087
O    0.13400371   1.95455157   1.04024006
H    0.56837793   2.28140537   0.25238380
H   -0.76544629   1.77971383   0.76337672
O    1.86418668   0.06575635   0.62336592
H    2.13651199   0.62271554  -0.10592636
H    1.74157791  -0.79914985   0.23203973
H    0.76902490   0.66964860   1.47737507
