25
Energy:   -809.90614610
O    0.48052296   1.52819112   1.55953831
H    1.02102411   2.26657375   1.84039673
H    0.78370830   0.79268213   2.09183242
O   -0.96129434  -0.72691250  -2.77051857
H   -1.50791304  -1.24940945  -3.35740593
H   -0.16070773  -1.24125277  -2.66685070
O   -2.24923903   1.28352364  -1.65325573
H   -2.36991727   1.58632893  -0.75326819
H   -2.93710125   1.72676038  -2.14986282
O   -2.21061582   1.93605520   0.95187695
H   -1.34159580   1.86223572   1.34632179
H   -2.75450905   2.31999321   1.63962953
O    1.31000928  -2.34295273   0.76674198
H    1.28312634  -3.24219921   1.09364397
H    1.33372463  -1.80141124   1.55566672
O    0.26566402   0.83022249  -1.08938064
H    0.95320377   0.18015464  -1.23406210
H    0.39139599   1.11512585  -0.18425446
O    1.37508440  -0.66982844   3.00758114
H    0.80863500  -0.92919940   3.73428166
H    2.25462776  -0.64855786   3.38465261
O    1.52351823  -1.50614736  -1.80582732
H    1.49696241  -1.89806438  -0.93294262
H    2.35444406  -1.80289540  -2.17695360
H   -1.00178983   0.50716393  -1.84245722
