25
Energy:   -808.45407966
O   -0.63470603  -0.08875106  -0.81804512
H   -0.98458952   0.24883335  -1.64257539
H   -0.43577403  -1.00722005  -0.99990391
O   -1.22865914   1.84621679  -2.80294571
H   -0.82993542   1.88512119  -3.67227746
H   -2.12626400   2.15056473  -2.93677278
O    0.67056786   4.70680053   0.75728873
H    1.42538067   5.27591441   0.60695958
H    0.09085649   5.22056726   1.31961455
O    0.78427231   0.44177500   1.31797155
H    1.45762842   0.80115471   1.89561299
H    0.55030072  -0.39718950   1.71499512
O    0.06969645  -2.65339089  -1.26003982
H    0.08226160  -3.26183950  -0.52121355
H    0.27031997  -3.19691810  -2.02198484
O    0.07546590  -1.92329869   2.38615238
H    0.08057930  -2.76215789   1.92515244
H   -0.25237631  -2.13215945   3.26086862
O    0.09573438  -4.31923551   0.96734971
H    0.85980575  -4.87406042   1.12418120
H   -0.65178760  -4.91143587   1.04945621
O    0.25103911   2.31483634  -0.44225856
H   -0.18525852   2.51572702  -1.27021940
H    0.39698506   3.16849840  -0.03459116
H    0.13864301   0.87331049   0.04470291
