25
Energy:   -808.24846756
O    0.86139079   1.48125037   0.09736426
H    1.16194687   1.06530343  -0.71064937
H    0.00680312   1.85002553  -0.12605605
O    0.25687996  -0.30333415   1.88981065
H    0.69025266  -1.08684953   1.55139729
H   -0.64833992  -0.38066721   1.58843314
O   -0.63296910  -1.99044899  -1.37362648
H   -0.34472259  -1.23662562  -1.88830708
H   -0.90048423  -2.63810538  -2.02570677
O   -1.69304384   1.83239139  -0.84607990
H   -2.42199887   2.44606555  -0.93696690
H   -2.07124116   1.07497342  -0.39940702
O   -2.09709521  -0.56326791   0.48981356
H   -1.72356704  -1.16655606  -0.15264419
H   -2.88634238  -1.00494572   0.80324849
O    0.11500986   0.40376668  -2.47341273
H    0.31223454   0.67839416  -3.36890925
H   -0.59008692   0.98734019  -2.19321222
O    1.51016972  -2.11677438   0.38398897
H    0.84903803  -2.25754237  -0.29374336
H    2.05178894  -2.90558799   0.35842406
O    2.08999690   1.48643702   2.41898282
H    2.26810382   1.22641729   3.32280775
H    2.67850003   2.22468686   2.26123909
H    1.05323128   0.86636780   1.46952894
