25
Energy:   -809.16083178
O    1.84792012  -0.14999995   3.45657528
H    2.37150594   0.37242212   4.06416471
H    1.85040192  -1.03005166   3.83305195
O    1.36990591  -1.20352183  -1.32883033
H    1.91554792  -1.78013376  -1.86364369
H    0.87895471  -0.68129337  -1.96324045
O   -0.91943576  -1.01963975   0.28537738
H   -1.65530319  -1.08446659  -0.32333309
H   -0.18328962  -1.41018635  -0.18557279
O   -0.37186836   0.92681296   2.14676589
H   -0.93137218   0.18250162   1.92498231
H    0.20919134   0.59473960   2.83111139
O   -2.72825920  -0.97951932  -1.86543898
H   -2.92787932  -1.83442627  -2.24690688
H   -3.58237745  -0.56350478  -1.74862386
O   -0.47317732   0.48288051  -2.59332967
H   -0.51119190   0.78634200  -3.50035661
H   -1.28998799  -0.00002012  -2.46739656
O   -0.23574826   1.95600388  -0.27284052
H   -0.54610104   2.85443998  -0.38564821
H   -0.33838233   1.55641641  -1.13656961
O    1.76505979   0.57949497   0.72228081
H    2.13876325   0.17737159   1.50642005
H    1.88728882  -0.07558303   0.03513838
H    0.36199921   1.14986563   0.87446162
