25
Energy:   -808.27895267
O   -1.52716258   0.28288429  -1.18311960
H   -1.83627540   0.34579536  -2.08684705
H   -1.40654016  -0.65513880  -1.03548905
O    0.27018318   2.90255727  -0.16911767
H    0.53834591   3.81834802  -0.24427009
H   -0.64353678   2.94245042   0.11329378
O    1.81905304  -1.86285844  -0.87628558
H    2.36674915  -2.47576198  -1.36680578
H    0.92206890  -2.13877636  -1.06475467
O    0.61043764  -1.91668638   1.68885365
H    1.32956782  -2.07242485   1.07662071
H    0.86334525  -2.38993221   2.48151245
O   -2.13571768   2.01760490   0.85709937
H   -2.21640097   1.39781900   0.13212524
H   -3.03873095   2.21404953   1.10651547
O   -0.91772015  -2.34831274  -0.62064370
H   -1.48621056  -3.11173466  -0.72182414
H   -0.66967649  -2.35464494   0.30383782
O    0.33228824   0.78475363   1.35186187
H   -0.55689890   1.03403909   1.60372459
H    0.40200195  -0.13744667   1.59867849
O    1.82569452   0.86862281  -0.79966858
H    2.37222156   1.21702013  -1.50405438
H    1.90826917  -0.08166155  -0.87949911
H    0.81595273   1.49077368   0.11539308
