25
Energy:   -807.61988524
O    0.08290940  -3.26638322   0.02788983
H    0.84958437  -3.75903351  -0.26491902
H   -0.56536641  -3.93692029   0.24318116
O    0.95000445   1.03667399  -1.92031697
H    1.23161855   1.20091452  -2.82028941
H    0.37215867   0.27628785  -1.98465227
O    0.05037708  -0.95063979   1.54903773
H    0.13619233  -1.80090887   1.11786480
H   -0.85333470  -0.68520409   1.37850691
O    0.68845372   1.56641480   1.81821623
H    0.71059020   2.05303713   2.64219471
H    0.18847135   2.12495445   1.22299951
O   -2.21389391   0.18685330   0.45155494
H   -1.96712663   1.07036422   0.17815739
H   -3.15443600   0.24186536   0.62062919
O   -0.69000588  -1.06181868  -1.54760126
H   -0.48384781  -1.93281481  -1.20834260
H   -1.43952297  -0.77275467  -1.02712267
O   -0.79113091   2.48138326  -0.30433801
H   -1.09015689   3.33678714  -0.61272008
H   -0.23002222   2.15532439  -1.00795332
O    2.15254958  -0.00445454   0.31183188
H    1.95670880   0.33146401  -0.56283203
H    3.10866802  -0.01710399   0.35552821
H    0.98742323   0.14917834   1.27754770
