25
Energy:   -807.51756741
O   -0.70300145  -0.56755191   2.45572620
H   -1.24288529  -0.63271496   3.24345145
H   -1.03588549   0.20552716   1.99990956
O   -1.28099183   1.52705917   0.68786868
H   -1.75613906   2.33378222   0.88702911
H   -0.38196223   1.81215858   0.52447977
O    1.94019427   0.23300434   2.17476703
H    1.10544704  -0.12203765   2.48033878
H    2.55918205   0.02775096   2.87545030
O    1.40006285   1.77760884   0.04056151
H    2.00291075   2.51339808  -0.06630502
H    1.71267754   1.32286979   0.82268446
O    0.98884736  -0.47695472  -1.45138263
H    0.97339372  -1.17176249  -0.79317658
H    1.33665104   0.28494708  -0.98794968
O   -0.44555816  -0.08361724  -3.61077815
H   -1.24147389  -0.00535224  -4.13672928
H    0.26486043  -0.10316129  -4.25199208
O   -1.59010727  -0.38041043  -1.27056149
H   -1.52303169  -1.16194678  -0.72198729
H   -1.71047028   0.33859195  -0.65025496
O   -0.32684469  -2.25704835   0.30708503
H   -0.43085819  -1.82349621   1.15410663
H   -0.29759694  -3.19043713   0.51723210
H   -0.34733715  -0.31105354  -2.10431415
