25
Energy:   -808.15861449
O   -1.42812739   0.02774920   0.78731179
H   -1.68475186  -0.21454102   1.67707085
H   -1.14548379  -0.79439219   0.38677717
O    1.43523137   0.74415090  -2.26531859
H    2.06984114   1.07537170  -2.90076730
H    1.10369930  -0.06422741  -2.65626980
O   -0.16479098  -2.13374240  -0.38168201
H   -0.25072983  -3.07213010  -0.21353064
H   -0.03279306  -2.07053834  -1.32762791
O    0.08755670   1.76229931   1.99375631
H   -0.32492149   1.37821837   2.76743287
H    0.99049853   1.44578745   2.02110868
O   -1.54148246   0.16059197   3.60749064
H   -2.30831564   0.54544850   4.03185390
H   -1.21122650  -0.47661627   4.24083770
O    0.36218257  -1.69793620  -3.08973040
H   -0.39912001  -1.64978803  -3.66794488
H    0.95345961  -2.31401391  -3.52224811
O   -0.34842372   2.00034517  -0.59244737
H   -0.49494793   2.91368996  -0.83854452
H    0.23699640   1.66040994  -1.26917417
O    1.52656870  -0.04824753   0.43501030
H    1.85488935   0.21840567  -0.42367094
H    1.19242766  -0.93492562   0.29942425
H   -0.49554763   1.23345409   0.71167922
