25
Energy:   -809.03606213
O   -1.87311474   0.54329522  -0.96911134
H   -1.88260703   1.12248346  -0.20708593
H   -2.79431511   0.45187014  -1.21255167
O   -0.56309250  -1.99681079   1.04371208
H   -0.30593414  -1.32077762   1.67067347
H   -0.83999455  -2.73485833   1.58670650
O    0.71410083   0.52503730  -1.41416399
H    1.06420227   1.08710606  -0.72297693
H    1.47180365   0.03268523  -1.72992928
O    1.25241010   2.03350669   0.80698383
H    0.37281723   2.39316981   0.92183449
H    1.83366028   2.78929876   0.89159130
O   -1.51762240   2.00265590   1.31898862
H   -2.12032117   2.56296922   1.80790070
H   -1.20584766   1.36643327   1.96261050
O    0.15166933   0.17141267   2.61465405
H    0.80977128   0.69563678   2.15823018
H    0.47770993   0.10535679   3.51218734
O   -0.64163564  -1.66771961  -1.63398700
H   -0.67830528  -2.05868123  -0.76104016
H    0.18896088  -1.97292785  -1.99893797
O    2.01119669  -1.75642562  -2.50092011
H    2.67185344  -2.31485540  -2.09113884
H    2.21425315  -1.79079006  -3.43570297
H   -0.62842230  -0.21417066  -1.37369660
