25
Energy:   -810.23688375
O   -0.01373327  -3.03899737  -1.53983404
H   -0.85974852  -3.41525377  -1.78257086
H    0.51403561  -3.79010202  -1.26866311
O    1.11346143   0.98446370  -1.96864844
H    1.17059818   0.23496837  -2.56128997
H    1.39981342   1.73000364  -2.49628902
O   -1.11416602  -0.39433889   2.29822343
H   -0.47598791   0.17040194   2.73414584
H   -1.42615295  -0.98062892   2.98754194
O    1.13082397  -1.29028479  -3.39330739
H    0.76111064  -2.02319617  -2.90098147
H    1.37464042  -1.66761876  -4.23853189
O    0.35823293   1.91242828   0.35629033
H   -0.58077692   2.06775839   0.45809851
H    0.69393687   1.87591471   1.25194734
O   -2.28475200   1.68306276   0.75187752
H   -3.19766735   1.97033908   0.76889913
H   -2.25432357   0.94411988   1.35955291
O    0.86666120   1.45273005   3.05597133
H    1.70400473   1.17292142   3.42582914
H    0.60419800   2.19957020   3.59409279
O    0.15728005  -0.63618548  -0.14051473
H   -0.32999344  -0.74026367   0.67677600
H    0.07755031  -1.48427216  -0.57711980
H    0.55746554   0.78399854  -0.60327393
