25
Energy:   -808.45458395
O    0.86476082   2.01014728   0.18566961
H    1.36408624   2.82615122   0.21797338
H    1.37443027   1.39584537   0.71397074
O    2.05736918  -0.27592620   1.23182733
H    2.56713735  -0.60789809   0.49279896
H    2.59819517  -0.46209771   1.99934232
O   -1.75427935   1.81014035   1.08799685
H   -2.14091724   2.65535197   1.31682060
H   -0.85487482   2.01826637   0.83504053
O    0.45696268   0.02150281  -1.67558730
H    0.61797364   0.87652889  -1.27654128
H    1.32175493  -0.38542582  -1.72826842
O   -0.31956459  -1.39991012   0.35315388
H   -1.06135233  -1.38423800   0.95791597
H    0.42636459  -1.11469091   0.88085787
O    2.96239582  -1.13107178  -1.29309480
H    3.70370064  -0.71371225  -1.73185445
H    3.09981251  -2.06854082  -1.42911055
O   -2.85724948  -0.67813840   1.20397619
H   -2.61042504   0.24022119   1.31317886
H   -3.55722604  -0.81602930   1.84213820
O   -2.06042325  -0.71093664  -1.45982647
H   -2.59042212  -0.52943930  -2.23596548
H   -2.69181414  -0.74793111  -0.74134975
H   -0.63331131  -0.71601477  -0.97151988
