25
Energy:   -811.88624361
O   -2.69895362  -1.55222753   0.93426935
H   -2.42992693  -1.53072701   1.85263432
H   -3.59178422  -1.89676491   0.95374662
O   -1.04872189   0.10028462  -3.07518820
H   -1.61641864   0.08129043  -3.84563707
H   -0.28873782   0.61342956  -3.34966649
O    2.47378704   1.60759060   1.68075436
H    2.37053787   2.50162770   2.00674380
H    3.35992920   1.35757183   1.94243077
O    0.40441637  -0.33602900   1.53528055
H   -0.16612479  -0.63231836   2.24445419
H    1.02637187   0.25554407   1.95888946
O   -1.40691365  -1.30408074   3.41428833
H   -1.83421107  -0.78011965   4.09186752
H   -1.19804514  -2.13189014   3.84711322
O    1.37790380   1.48462521  -3.35181282
H    1.34242141   2.40095826  -3.62623326
H    2.00967954   1.08031154  -3.94647384
O    1.33087682   0.59171842  -0.71567582
H    1.90599459   1.13639312  -0.17827385
H    1.41560669   0.95162117  -1.59858165
O   -0.61501096  -1.16075951  -0.73154480
H   -0.89281387  -0.83641229  -1.58819892
H   -1.43123513  -1.37557887  -0.28003335
H    0.33963554  -0.35579336  -0.00685376
