25
Energy:   -811.04231947
O   -1.85123586  -1.39118880   0.74533433
H   -1.46541138  -0.92582664   1.48749966
H   -2.73384160  -1.61898109   1.03748092
O    0.63251056   2.21917329  -1.68418543
H    1.15870078   2.82493697  -2.20611077
H    0.04540309   1.80501286  -2.31664714
O    1.19645640   0.00882472  -0.39718281
H    0.72088472  -0.65434356  -0.89745399
H    1.55432701  -0.46687673   0.35239614
O   -0.38800703   0.01635845   2.66023469
H    0.42604708  -0.48354667   2.59988051
H   -0.58982952   0.03428067   3.59574434
O   -1.04091528   0.66888348  -3.08201768
H   -1.00711422  -0.22817246  -2.74978286
H   -1.63414502   0.62486837  -3.83193301
O   -0.57402447  -1.65519144  -1.63996002
H   -0.60238980  -2.55830455  -1.95589349
H   -1.12191270  -1.65819662  -0.85507703
O    1.98006076  -1.26113677   1.94844423
H    2.82259006  -1.03576115   2.34288313
H    1.97234574  -2.21811498   1.92933845
O    0.16596963   2.03010639   0.88920465
H   -0.25099426   2.86439068   1.10447818
H   -0.09443208   1.44174772   1.59790548
H    0.69145463   1.43241293  -0.41591629
