25
Energy:   -816.35557473
O   -1.53577481  -1.53054065   1.36459505
H   -2.07361182  -2.25644923   1.68085435
H   -0.86984208  -1.94613485   0.81682968
O    1.68561336   1.57481792  -1.64743930
H    2.17453332   2.02053046  -2.33919753
H    1.09329069   0.98511884  -2.11395907
O    0.59559401  -2.06544615  -0.32683807
H    0.96427012  -2.89425813  -0.63242025
H    0.32990960  -1.61158670  -1.12662256
O    0.15626136   0.25982732   2.60308254
H    0.21329902   0.35840947   3.55348252
H   -0.50931039  -0.41537258   2.47135859
O   -2.07733113   0.60178936  -0.33514641
H   -2.98127325   0.90693415  -0.41265228
H   -2.12744673  -0.14930216   0.25610801
O   -0.29383659  -0.30479560  -2.27497690
H   -1.02833621   0.03766460  -1.76560163
H   -0.66604069  -0.49210471  -3.13672585
O    0.13690408   1.96784843   0.61799364
H    0.59837599   2.20277696  -0.18704307
H   -0.75497944   1.76790985   0.33373987
O    1.94937563   0.12181424   0.69844463
H    2.22936229   0.55143209  -0.10980522
H    1.74296467  -0.77483787   0.43454813
H    0.80225924   0.83754292   1.34831700
