25
Energy:   -807.48225235
O    1.18737533   2.73648311   0.45042169
H    0.81703593   2.60588099   1.32336136
H    1.89931555   3.36242871   0.58295499
O   -1.62451853  -2.14450927   0.82603899
H   -2.35072998  -2.38499701   1.40137751
H   -1.07422663  -1.57211737   1.36062124
O   -0.47416006  -0.58031038  -2.97684906
H   -0.64924545  -1.48692182  -2.72459395
H   -0.77170527  -0.52208754  -3.88476359
O    0.06195977   2.13040778   2.92691213
H    0.53597520   2.37909492   3.72044595
H   -0.81770695   2.48672826   3.05122632
O    0.87766225  -0.63515208  -0.75317277
H    0.79246042  -0.48940817   0.18902212
H    0.68104116  -1.56449993  -0.87100555
O    0.32274432  -0.45997097   1.94275791
H    0.19891768   0.41112533   2.31970624
H    0.91870959  -0.90096339   2.54821885
O   -0.48771484  -2.91717942  -1.52236223
H   -1.00971375  -2.80104682  -0.72847168
H   -0.43345546  -3.86590852  -1.63725721
O    0.32540564   1.66873684  -1.85999770
H    0.64783559   2.10348003  -1.07052374
H    0.07767690   2.38524541  -2.44435871
H    0.27748009   0.18667427  -1.85228242
