25
Energy:   -809.12022065
O   -0.81995259  -2.24170834   0.39437823
H   -0.55383950  -2.75099403  -0.37115672
H   -1.54825845  -1.70395738   0.08353046
O    1.50294405   1.70666117  -0.90527126
H    2.00906369   2.18697498  -1.56053716
H    0.60354340   2.01108951  -1.02624115
O    1.33349052  -0.93520291  -0.19954821
H    1.40102011  -1.51597417  -0.95742443
H    1.53139795  -0.06499149  -0.54566465
O    0.12359996  -0.48256720   2.08524376
H   -0.26470216  -0.68020378   2.93753074
H    0.34780106   0.44676066   2.13336275
O   -2.28972908  -0.14010235  -0.44771496
H   -1.98325747   0.76663303  -0.45946003
H   -3.21602620  -0.08340026  -0.68221523
O    0.61502589  -3.13594136  -1.83128829
H    1.11664875  -3.95012423  -1.78990455
H    0.26343138  -3.11565843  -2.72134545
O   -1.14901454   2.38481177  -0.33176807
H   -1.64170858   3.19275403  -0.47569072
H   -0.76681482   2.48878761   0.53963553
O    0.72839919   2.16516907   1.76551149
H    1.31168419   2.15237360   1.00666582
H    1.13757692   2.78206787   2.37234038
H    0.20668874  -1.25496663   0.78720457
