25
Energy:   -810.86296005
O   -1.79349560  -1.26583582  -0.75238922
H   -0.92029189  -1.65745879  -0.77184660
H   -2.34503006  -1.88528030  -1.23022824
O    1.23219407   1.52130654  -0.16746372
H    0.55297268   1.61408142  -0.83550785
H    1.91473725   0.99991136  -0.58997256
O    0.89960547  -2.02256584  -0.49944590
H    1.60166882  -1.56117139  -0.95819863
H    1.19486776  -2.93231139  -0.46182860
O    0.61947066  -0.28984904   1.59747349
H   -0.22277285  -0.52313896   1.98790086
H    0.80179859  -0.99770291   0.97946759
O   -2.13851729  -0.25481073   1.83697720
H   -2.87751835  -0.59645124   2.34035682
H   -2.24184675  -0.64061956   0.96708846
O   -1.00582517   1.24550340  -1.62846479
H   -1.56666130   1.67012798  -2.27760934
H   -1.42442145   0.40017541  -1.46589294
O   -0.51120472   2.05437957   1.72120619
H   -1.34347451   1.62706191   1.92358813
H   -0.66407238   2.97989820   1.91167560
O    2.89170045  -0.30202963  -1.43736905
H    2.98470578  -0.12909919  -2.37421318
H    3.78868873  -0.42071401  -1.12502648
H    0.52658483   1.11892159   1.06436444
