25
Energy:   -809.69281989
O    1.21748141   0.92759686  -0.89340314
H    1.15512787   0.98914417  -1.84658508
H    1.65137466   0.08923416  -0.73492133
O    0.89574309   1.03134720  -3.65045073
H    0.84973674   1.89192673  -4.06700580
H    1.48034980   0.52338221  -4.21297932
O    1.56764424  -1.48641521   0.32121679
H    0.81141605  -1.83008897   0.79686279
H    2.22438178  -2.18020161   0.38111744
O   -0.86570742  -1.83312483   1.65804789
H   -0.85179482  -1.31963336   2.46573892
H   -1.38280100  -2.60869583   1.87561556
O   -1.46984379  -0.13124147  -2.72508881
H   -2.12986052  -0.35710172  -3.38052523
H   -0.73858738   0.22109418  -3.23239099
O   -1.17319867   0.28103134  -0.08533362
H   -1.40491097   0.08610181  -0.99337753
H   -1.31477837  -0.54300123   0.38066784
O    0.45322396   1.50706512   1.55105339
H    1.13337335   2.10834189   1.85452482
H    0.09743633   1.12302616   2.35240294
O   -0.66826727   0.10401180   3.67338743
H   -0.15171518  -0.09382780   4.45458221
H   -1.48790725   0.46383453   4.01242986
H    0.14159120   0.92228687   0.14284536
