25
Energy:   -809.91719209
O   -1.70118230  -0.14283067   1.68533203
H   -0.98079625  -0.43247562   2.24513699
H   -2.38422882   0.13287596   2.29661361
O    2.20019931  -0.80393062  -1.31416799
H    3.02643881  -1.21965124  -1.56061576
H    2.35694773  -0.46150763  -0.43416329
O    2.04806144   0.50464692   1.14260826
H    2.74287286   1.01832558   1.55443730
H    1.64674025   0.02129453   1.86478802
O    0.59944637  -0.88089760   3.09016034
H    0.76310594  -1.82398714   3.09559333
H    0.68645197  -0.61694442   4.00612464
O   -0.24234011   1.22924002  -0.20764776
H   -0.86503325   0.87317522   0.42615266
H    0.61183567   1.12822075   0.21236495
O   -2.08538132  -1.54401638  -0.69381501
H   -2.09707314  -1.23068737   0.21057434
H   -2.76302189  -2.21944826  -0.72257055
O   -0.75620084   2.19939176  -2.59998521
H   -0.88604485   2.15713399  -3.54739571
H   -0.88394574   3.12245099  -2.38118223
O   -0.27024171  -0.34634137  -2.28012780
H    0.59607686  -0.69837035  -2.07567836
H   -0.88079257  -0.95341922  -1.86189821
H   -0.41568450   0.98160270  -1.70056077
