25
Energy:   -809.29652278
O   -0.16092834  -1.94013863   1.68290017
H   -0.34889839  -2.72548378   2.19683802
H   -0.58123962  -2.10000712   0.83790766
O    2.46012601  -0.33859638  -1.10134371
H    3.34135180  -0.24020506  -1.46188789
H    2.04582499  -0.99878406  -1.65698636
O   -1.13018037  -1.75526787  -0.93856298
H   -0.40396779  -1.95698025  -1.52861318
H   -1.88373557  -2.20243179  -1.32383022
O    0.08573916   2.47771952   1.77368473
H   -0.72602973   2.94518529   1.57686281
H    0.49688303   2.99261290   2.46800264
O   -0.79582352   0.84213083  -0.05023246
H   -1.59549889   1.36235523  -0.12844828
H   -1.02528803  -0.00844293  -0.42453470
O   -2.38812980   3.16197989   0.69461869
H   -3.19873420   3.14813218   1.20350040
H   -2.49385650   3.90047651   0.09488837
O    1.06433081  -2.26402557  -2.57102734
H    1.45623297  -3.13573965  -2.51850018
H    1.00107402  -2.08548011  -3.50929807
O    1.36631804   0.23836059   1.28504975
H    1.88232065   0.02641994   0.50719737
H    1.00574759  -0.60130906   1.56996320
H    0.28486606   1.15846028   1.01363904
