25
Energy:   -808.93073534
O   -2.62313338  -0.85738158   0.84780407
H   -2.62409827  -0.52361405  -0.04931920
H   -3.53863868  -1.07407670   1.02422722
O    1.31388160   0.92664283   0.82715841
H    0.67403812   1.51000538   0.41908941
H    1.95349872   0.75155929   0.13689213
O    0.51546484  -1.35339123  -1.65076752
H    1.32244431  -0.84562647  -1.73556687
H    0.67322267  -2.14296208  -2.16837953
O    0.58169744   0.07559291   3.19854183
H    0.91452857   0.81940713   3.70073273
H    0.22005619  -0.51659426   3.85790653
O    0.00399917  -1.30274114   1.04711298
H   -0.95270751  -1.29557358   1.07699276
H    0.21415118  -1.47694812   0.12966003
O   -1.91667947   0.06003186  -1.69486522
H   -2.38403422   0.02859014  -2.52962435
H   -1.12685434  -0.46023480  -1.84227863
O   -0.71871455   2.17582325  -0.37668410
H   -1.18109400   3.01003769  -0.45745140
H   -1.24200278   1.56066808  -0.89047918
O    2.80397859   0.23419743  -1.40846445
H    3.67751389  -0.15482114  -1.36565699
H    2.90036755   0.97532875  -2.00651578
H    0.63246165  -0.11438928   1.66791948
