25
Energy:   -808.45999823
O    0.40123153   1.49721744   1.73639127
H    0.06103558   2.32753645   1.40312126
H   -0.32405038   1.12464004   2.23777343
O   -0.04420850  -0.91827784  -2.23052440
H    0.44075249  -1.68387914  -1.92246705
H   -0.10826048  -1.03996096  -3.17779543
O   -2.03756687  -0.39489351  -0.36030216
H   -2.91594644  -0.36272030  -0.73930884
H   -1.46929557  -0.63640395  -1.09172015
O    1.11586213  -0.91698055   1.05300435
H    0.41150678  -1.19826485   1.63695172
H    1.25864862  -1.66412427   0.47195347
O   -0.03826831   3.51360549  -0.20283780
H    0.52576430   4.28510416  -0.14908976
H   -0.87196358   3.84836961  -0.53316647
O    1.41923737  -2.87385061  -0.89147541
H    2.33205210  -3.03043201  -1.13330877
H    1.05359945  -3.74798570  -0.75572337
O    1.16112584   1.02481310  -0.69907628
H    0.81205855   1.90288058  -0.85198601
H    0.79180983   0.49353951  -1.40447398
O   -1.35759180  -0.61926496   2.28446340
H   -1.78863387  -0.61083243   1.42985034
H   -2.01768675  -0.96937293   2.88273667
H    0.95917965   0.54027852   0.71112429
