25
Energy:   -807.67086718
O    0.59522474  -2.34580974   0.18388464
H    0.56242030  -3.24144177   0.52003785
H   -0.31774852  -2.05828437   0.17749352
O    1.31387876   1.16040037  -1.68297070
H    1.96279245   1.69502148  -2.14048917
H    1.45247603   0.27490968  -2.01901963
O    1.53421714  -1.45648129  -2.28060607
H    1.27465507  -1.95600506  -1.50643853
H    1.90836998  -2.10882007  -2.87280165
O   -0.30189137   0.25528300   3.09892687
H    0.30796758  -0.02293166   3.78222806
H   -1.16884522   0.08462654   3.46702908
O   -0.79653899   1.99910912   1.18652636
H   -1.00991367   2.89343525   1.45276660
H   -1.12949755   1.92916025   0.29183222
O   -1.74365311  -0.89352766   0.29203499
H   -1.75155810  -0.25587623  -0.42180674
H   -2.63406272  -1.24433797   0.31032999
O   -1.41505090   1.30508996  -1.38356204
H   -1.91707780   1.62768255  -2.13198362
H   -0.50799006   1.29562283  -1.68914812
O    1.12356493   0.24899443   0.90014456
H    1.35242537   0.64364407   0.05865397
H    1.12872673  -0.69340699   0.73255945
H    0.00898549   0.80634452   1.69507287
