25
Energy:   -807.59972455
O    0.68249440   0.61671554   2.57128505
H   -0.20717555   0.74698361   2.89953719
H    1.22817817   0.59893427   3.35750696
O   -1.18954348  -1.99694341  -3.35895423
H   -1.75562053  -1.64665056  -4.04676492
H   -1.24919361  -2.94695512  -3.45970869
O   -1.93404706   0.98003967   3.45278352
H   -2.25713236   0.39956221   4.14190880
H   -2.13470755   1.86138087   3.76775163
O    3.86709899   1.13770602  -0.57682963
H    4.13500832   2.03685216  -0.76654694
H    4.67469695   0.69751677  -0.31178096
O   -2.71124726   0.29950073   0.86882027
H   -3.63995709   0.52134526   0.80162725
H   -2.47132333   0.53950345   1.76384377
O    1.31338852   0.39564381  -0.04412001
H    1.13756398   0.51159998   0.88962072
H    2.21767850   0.68875902  -0.15625810
O    1.10902231  -0.70553322  -2.42717544
H    0.50357716  -1.18191096  -2.99527074
H    1.89952640  -0.59737915  -2.95598337
O   -0.88208133  -0.83414576  -0.75497317
H   -1.55807847  -0.47048425  -0.18312527
H   -1.36862964  -1.28056392  -1.44794750
H    0.50897189  -0.35311220  -0.99520703
