25
Energy:   -811.06688400
O   -0.15094885   2.55647335   0.18583360
H   -0.17654720   3.50841951   0.28265859
H   -0.31544659   2.40541038  -0.74494689
O   -1.76662045   0.61625129   1.33291960
H   -2.62242624   0.96538090   1.58179067
H   -1.24532424   1.38962424   1.11756783
O   -0.63955074  -1.66851242   2.45967586
H   -1.07642842  -0.83323769   2.29328521
H   -0.63324931  -1.75025675   3.41335820
O    2.19064622   1.08571716  -0.04301625
H    1.45086337   1.65979221   0.15545547
H    2.95062595   1.53854615   0.32250879
O    1.75835645  -1.43420499  -0.88862215
H    2.55966198  -1.95762840  -0.87561348
H    2.04200633  -0.55487918  -0.63850075
O   -0.45743691   1.58740176  -2.41471048
H    0.33023445   1.69697873  -2.94743795
H   -1.17854975   1.80750490  -3.00444155
O   -0.73809597  -0.68751439  -0.84879031
H   -1.24937656  -0.31039196  -0.13282754
H   -0.64955553   0.02505716  -1.48174705
O   -0.04897291  -2.98756430   0.19703497
H   -0.28647131  -2.75031277   1.09343782
H   -0.41310524  -3.86454094   0.07640556
H    0.32174815  -1.73105936  -0.54204809
