25
Energy:   -809.90280668
O   -0.73921706   1.17668071   3.87045723
H   -0.06816875   1.43742216   4.50128201
H   -1.54827772   1.14301903   4.38086843
O    2.48648971  -0.40059734  -1.11578293
H    3.41366671  -0.20658220  -1.25337937
H    2.03265031   0.10725165  -1.78835341
O    0.37021246  -1.84478172  -0.32428757
H   -0.04783428  -2.07932149  -1.15281631
H    1.25285674  -1.56824905  -0.57066250
O   -0.21087790  -0.82186553   2.01643177
H    0.03977319  -1.58927880   2.53071064
H   -0.39712341  -0.14635740   2.66853087
O   -0.84884449   2.60285786   1.46827512
H   -1.01937497   3.54290340   1.52714437
H   -0.84011958   2.30314727   2.37730168
O   -0.63830838  -2.04185333  -2.91471930
H   -1.56224364  -2.17626054  -3.12569368
H   -0.17338621  -2.68086241  -3.45485504
O   -0.74956643   0.48994695  -0.19027819
H   -0.42767075   0.74190619  -1.05580205
H   -0.82915425   1.31636009   0.28610290
O    0.37426650   0.57903894  -2.70603605
H    0.01754168  -0.26104243  -2.99455389
H    0.27387417   1.15532427  -3.46369590
H   -0.20899204  -0.71799908   0.48164761
