25
Energy:   -814.87667424
O    0.24915612  -1.68697926   0.64117903
H    0.51683262  -2.37173118   1.25411943
H    0.86203135  -1.76624787  -0.08980133
O   -0.54342159  -0.09399807  -2.34219431
H   -0.93857938   0.11104857  -3.18956557
H   -1.25995034  -0.46393816  -1.82647857
O    1.87887474  -1.20417239  -1.54348937
H    1.12410675  -0.89241277  -2.04285202
H    2.38705545  -1.71716638  -2.17183750
O    0.59450779   1.16054927   2.24367175
H   -0.35733986   1.14044496   2.34273603
H    0.92930525   1.15419449   3.14038917
O   -2.09712888   1.19166616   1.40968552
H   -2.92509695   1.59663929   1.66794406
H   -2.35449211   0.41924966   0.90632803
O   -2.21030934  -0.99345538  -0.30008934
H   -2.84347532  -1.71118184  -0.31428161
H   -1.42458351  -1.37430428   0.09211072
O    0.04959295   1.58500087  -0.26101487
H   -0.11830603   1.14061642  -1.09201682
H   -0.81670839   1.69760694   0.13023147
O    2.41934988   0.68662134   0.38486851
H    2.44961849   0.03220648  -0.31302607
H    3.31937292   1.00494993   0.45456276
H    1.04181734   1.13078318   0.78035628
