25
Energy:   -807.62696859
O   -1.61040186  -1.18992001   0.98051947
H   -2.30709249  -1.83959335   0.88682549
H   -0.82768768  -1.70420917   1.17824915
O    1.13981373   1.92522679  -1.24338060
H    1.69408359   2.66949706  -1.47806878
H    0.62233050   1.75385603  -2.03019380
O    0.90721934  -2.17936728   1.40854162
H    1.22484562  -1.50900110   2.01348342
H    1.32054992  -2.98883328   1.70879896
O    1.37621200   0.15579166   2.88193289
H    2.25390650   0.53149005   2.95074373
H    1.02814282   0.19434196   3.77277158
O   -2.19019018   0.57944624  -0.88024429
H   -1.75930877   0.61438296  -1.73426565
H   -3.01128874   1.05504581  -1.00607774
O   -0.57001947   0.60577641  -3.07322011
H   -0.12787221  -0.17789048  -2.74671764
H   -0.64514079   0.46339998  -4.01678653
O   -0.34331791   1.09841237   0.90585458
H    0.25336743   0.88503131   1.62325752
H    0.20476783   1.55012457   0.26414596
O    0.66162287  -0.92080118  -1.10068475
H    1.30354441  -0.21173085  -1.06343089
H    0.94153472  -1.53388444  -0.42097148
H   -1.34923216   0.14967688   0.32127727
