25
Energy:   -809.15024147
O    1.40404320   0.20495737  -1.90420006
H    2.11779810   0.22807173  -1.26682144
H    1.84205968   0.20983320  -2.75528739
O    4.63628101  -1.88572954   0.62377095
H    5.34632915  -2.00549071   1.25442201
H    4.70732244  -2.63834428   0.03661168
O   -0.88805751   0.34429976  -0.50852434
H   -0.13425901   0.28985587  -1.09593860
H   -1.64516864   0.38492096  -1.09278842
O    3.04823052   0.29961891   0.31098953
H    3.60452983  -0.47290820   0.41081331
H    3.64493832   1.04043801   0.41756677
O   -4.15941385   0.23055474   0.49705271
H   -5.09851871   0.06839596   0.58659847
H   -4.01541857   0.29178403  -0.44727148
O   -3.16624861   0.44078617  -2.09733617
H   -3.31622753  -0.26754251  -2.72344211
H   -3.35613385   1.23984397  -2.58894788
O   -1.89463415   0.55510583   1.89303939
H   -2.07431210   0.99068818   2.72623546
H   -2.75576625   0.44232818   1.49059119
O    0.64802328  -0.00808635   1.58818403
H    1.49507618   0.10930143   1.15812200
H    0.85471208  -0.46074959   2.40586831
H   -0.72437827   0.30338223   0.97081503
