25
Energy:   -807.59822131
O   -2.01097213  -2.17329912   0.00917203
H   -2.73044141  -2.60625505   0.46867717
H   -1.70728637  -2.82165911  -0.62615162
O    1.94773632   1.24659675  -1.18387420
H    2.54355122   1.88424738  -1.57711476
H    1.34747582   1.01097245  -1.89126404
O    0.00464450  -1.05562555   1.54724353
H    0.82287041  -1.31732696   1.12504621
H   -0.67486278  -1.53073427   1.06894088
O    0.38296646   0.99304277   3.13769046
H    0.43092064   1.91142864   3.40320814
H    0.59120719   0.50220810   3.93264264
O   -2.15842413   0.42052073  -0.99983102
H   -3.05329364   0.72431446  -1.15198153
H   -2.25675143  -0.49591148  -0.74153743
O   -0.07029808   0.56717383  -2.85729146
H   -0.90253955   0.52131025  -2.38665091
H   -0.31816035   0.58858869  -3.78159528
O   -0.12469231   1.35741741   0.59189558
H    0.60841351   1.49372689  -0.00827724
H   -0.87580669   1.19683250   0.02069375
O    2.35885227  -1.07443873   0.26901273
H    2.40407685  -0.33637500  -0.33881004
H    3.18974178  -1.53455295   0.15006157
H    0.08005932   0.42203691   1.73647268
