25
Energy:   -814.76219579
O   -0.94371322  -1.71471781   1.82529859
H   -1.30730858  -2.53185130   2.16636034
H   -0.71803760  -1.91332045   0.91653055
O    0.80424576   1.67874330  -2.03680683
H    0.87517483   2.35710811  -2.70838863
H   -0.04042260   1.26129233  -2.20563189
O   -0.04523013  -1.63993470  -0.73916502
H    0.23487894  -2.31891975  -1.35296471
H   -0.60691389  -1.06421644  -1.25809823
O    1.55816260  -0.59381139   1.95663044
H    2.07242529  -0.72624702   2.75301385
H    0.74469155  -1.07319353   2.11375924
O   -2.15911944   0.60398958   0.88865433
H   -1.96401486  -0.21677073   1.34089161
H   -2.87582104   0.99067458   1.39169050
O   -1.62958948   0.32174366  -1.84988604
H   -2.01603710   0.49294956  -0.99106206
H   -2.37782003   0.27746516  -2.44521982
O    0.45129778   1.39918272   0.67455452
H    0.46949177   1.80516223  -0.19209505
H   -0.47808390   1.25495307   0.85254147
O    2.57016757   0.27935552  -0.32788056
H    2.26721463   0.66245026  -1.15109972
H    3.43350385  -0.07928604  -0.53344939
H    1.52261684   0.34349520   0.78745893
