21
Energy:   -120.49984596
O    1.10534095  -2.20376167   0.65556576
H    1.60325663  -1.48717263   0.26210424
H    1.67102007  -2.96996610   0.55980690
O    2.52414934  -0.16467953  -0.51460577
H    1.91278720   0.25176859  -1.12209169
H    2.64778676   0.48061944   0.18147962
O   -1.52696553  -1.42246977   0.82006541
H   -1.75555706  -1.66565897   1.71719236
H   -0.61363706  -1.69220854   0.72360843
C   -0.51867739   2.63582108   1.50023441
H   -0.93475266   2.48651783   0.52581659
H   -0.58238638   3.67176226   1.76036153
H   -1.06435959   2.05465638   2.21394137
C    0.95723038   2.19616716   1.50107458
N    2.05611080   1.86882484   1.50170012
C   -2.08071895  -0.29694161  -2.30850941
H   -2.41694711  -0.06438842  -3.29733186
H   -2.81046026   0.03000483  -1.59753632
H   -1.94321591  -1.35419918  -2.21796422
C   -0.74441898   0.41945902  -2.03893098
N    0.25051708   0.95285185  -1.83821758
