21
Energy:   -118.00037925
O    1.36179369  -1.93465603  -1.76675768
H    2.13112611  -2.24515757  -2.24419696
H    1.37040994  -2.43147074  -0.94863009
O   -1.74457853  -0.50145858   0.58998263
H   -2.19212933   0.32333132   0.40116589
H   -2.16948654  -1.14130398   0.01877085
O    0.64787332   0.37408975  -0.43481517
H    0.93741758  -0.34376796  -0.99791045
H   -0.16559009   0.05773313  -0.04184237
C    0.82622351  -1.14500807   2.73753758
H   -0.22760757  -1.13361645   2.92249831
H    1.13726136  -0.18304592   2.38713301
H    1.34485908  -1.37937526   3.64362160
C    1.14884354  -2.20859823   1.67156746
N    1.38904881  -3.00048944   0.87790425
C   -0.60298225   3.47142275  -1.40009488
H   -0.78770281   3.61243676  -2.44455337
H    0.31691016   2.94083895  -1.26903046
H   -0.53699723   4.42424606  -0.91773317
C   -1.75605127   2.66075732  -0.77972937
N   -2.61456358   2.05718005  -0.31783904
