21
Energy:   -117.79539749
O    1.24965154   1.10084576   0.63958236
H    2.15863364   0.88522624   0.43103591
H    0.93047555   0.34453476   1.13187516
O    3.43686389  -0.02262485  -0.67635657
H    4.08213517   0.16326048  -1.35848813
H    2.66851983  -0.33781658  -1.15231186
O    0.86141511  -0.47164609  -1.54163363
H    0.47545532  -1.24094038  -1.12276231
H    0.84955711   0.20272562  -0.86243260
C   -1.43052765   2.13703401  -1.30272368
H   -0.87441675   1.69046243  -2.10035435
H   -0.75406654   2.54820545  -0.58283654
H   -2.05206119   2.91546276  -1.69342028
C   -2.30996785   1.06762632  -0.62851887
N   -2.96475106   0.27140368  -0.12654274
C   -2.45488156  -2.08512956   2.26676357
H   -3.16614425  -2.06631047   1.46760688
H   -2.75202045  -1.39121326   3.02510897
H   -2.41106421  -3.07025079   2.68211317
C   -1.06659888  -1.69309684   1.72770741
N   -0.03295932  -1.40121067   1.32635560
