21
Energy:   -119.77149904
O   -0.36636666  -1.30870475   1.30974036
H    0.40502632  -1.50026799   0.77636597
H   -0.01754075  -1.14404975   2.18577749
O   -0.88327156   1.24531083   0.61340546
H   -1.08119825   1.29924365  -0.32155343
H   -0.80534209   0.30749505   0.78850661
O    0.01560205   1.44691737   3.16932415
H   -0.71366216   1.79481969   3.68251956
H   -0.28597144   1.49283547   2.26203324
C    2.48869083   1.16736568  -1.24130549
H    2.16612494   1.38861252  -2.23724789
H    3.55215508   1.26835493  -1.18011682
H    2.02587810   1.84751489  -0.55712677
C    2.08845470  -0.27532238  -0.88066416
N    1.79046070  -1.34946923  -0.61215029
C   -1.62690735  -2.01446222  -2.09153475
H   -0.82092411  -2.56850336  -2.52550434
H   -2.53272525  -2.23062638  -2.61847506
H   -1.73735692  -2.29126260  -1.06387648
C   -1.32425473  -0.50755401  -2.18760270
N   -1.09891610   0.61440764  -2.25912965
