21
Energy:   -125.82653486
O    2.36904748  -0.98449267   1.67480907
H    3.24812890  -0.75995978   1.97982168
H    2.06272975  -0.19710860   1.22488948
O    1.46687376   1.20768429   0.34918492
H    0.60608748   1.51294210   0.63570980
H    1.32400905   0.88872392  -0.54193000
O    0.83521273   0.04307717  -2.05540216
H    0.26200263  -0.61889212  -1.66880330
H    1.51662718  -0.46021627  -2.50104991
C   -2.37736022   1.55112944  -1.83910558
H   -1.79047158   2.16133228  -2.49341010
H   -3.38982346   1.89726959  -1.84117394
H   -2.34685796   0.53580038  -2.17537273
C   -1.80875037   1.63602546  -0.41044344
N   -1.38539449   1.69923440   0.65326046
C   -0.86733175  -1.73215508   2.05004654
H   -0.86537817  -0.72742361   2.41802894
H    0.00836170  -2.24042181   2.39605955
H   -1.73891221  -2.24065204   2.40596427
C   -0.87606310  -1.71483763   0.51016866
N   -0.88256398  -1.70194400  -0.63634041
