21
Energy:   -120.34692013
O   -2.09930561   0.83147355  -1.23639817
H   -1.41352002   1.38633736  -0.86483911
H   -2.70081675   1.44420471  -1.65945456
O   -0.12518787   2.40069686  -0.19993923
H    0.61821787   2.35302829  -0.80102779
H    0.16313174   1.92137974   0.57682247
O   -1.28111649  -1.76027162  -0.90728958
H   -1.59539101  -0.86319594  -1.02006633
H   -1.17901130  -2.09268614  -1.79908942
C    3.26913575  -0.61873259  -0.35380914
H    2.48148147  -1.25183782  -0.00212934
H    3.84928539  -0.27599982   0.47737058
H    3.89635312  -1.16855842  -1.02402478
C    2.66506208   0.59052704  -1.09163443
N    2.21530178   1.49087580  -1.64097890
C   -1.26324633  -1.35594152   2.46235362
H   -0.94754112  -2.32880365   2.14807717
H   -2.18379634  -1.10581549   1.97766430
H   -1.40609345  -1.35257750   3.52276980
C   -0.18712696  -0.32058165   2.08605980
N    0.61409282   0.45029084   1.80589195
