21
Energy:   -124.27789041
O    1.72914004   0.22800430   1.27628392
H    1.31393017   0.96797755   0.83325774
H    0.99969603  -0.27460341   1.63895289
O    2.19021466  -1.33180495  -0.88150747
H    3.12958047  -1.35253598  -1.06424755
H    2.11130819  -0.79850689  -0.09055944
O   -0.03676897  -0.07558105  -2.00080964
H    0.75109472  -0.55554328  -1.74558638
H    0.02272089   0.75329088  -1.52576845
C   -2.01757086   3.33069978   1.17208807
H   -1.96519421   4.39178098   1.04455939
H   -1.97017634   3.09397947   2.21449698
H   -2.93825006   2.96760000   0.76538492
C   -0.83607487   2.66682744   0.44069164
N    0.04360259   2.17254430  -0.10386625
C   -1.15086335  -2.84741675  -0.49716082
H   -1.66898716  -3.72559660  -0.17274127
H   -0.19956199  -3.12356167  -0.90172081
H   -1.72751086  -2.35038745  -1.24905086
C   -0.94437351  -1.90140090   0.70034323
N   -0.79063244  -1.19704910   1.59193944
