21
Energy:   -122.45956159
O   -1.70496731   1.25249362   0.00900371
H   -1.59454563   2.04596136   0.53288142
H   -1.01882393   1.30669452  -0.65620406
O    0.32579929   1.41373366  -1.86838432
H    1.07707288   1.06824944  -1.38624276
H    0.71131134   1.94922736  -2.56182415
O    2.31152095   0.41418585  -0.37193623
H    2.27767845   0.76384238   0.51847201
H    1.93355961  -0.46229415  -0.30010397
C   -0.18681147  -0.86682365   3.15722040
H    0.23997078  -1.84697046   3.11173045
H   -1.02972885  -0.81399778   2.50025860
H   -0.50185669  -0.66112722   4.15888630
C    0.86554352   0.17177802   2.72657492
N    1.64906965   0.94506418   2.40593978
C   -1.46809221  -1.57575340  -1.98728669
H   -1.21356775  -0.78869463  -2.66600311
H   -2.37416005  -1.32642082  -1.47564870
H   -1.60521050  -2.48628281  -2.53229483
C   -0.33300696  -1.75690083  -0.96241252
N    0.51211561  -1.89177333  -0.19934711
