21
Energy:   -119.13449977
O    0.93856305   0.82103290   2.20885976
H    1.04663604   1.70651185   1.86175876
H   -0.00165762   0.73892808   2.36847099
O    0.84941270  -1.03431646   0.18741255
H    1.06256902  -0.46738308   0.92861614
H    1.53871387  -0.86059639  -0.45361560
O   -0.88427492   0.92111157  -0.62898668
H   -0.30439162   0.18991936  -0.41608960
H   -1.52055974   0.93881101   0.08589808
C    1.07955531   1.80265539  -3.43474897
H    0.09501577   1.91844406  -3.03203933
H    1.01327837   1.45440827  -4.44431839
H    1.58606953   2.74496834  -3.41503258
C    1.86294507   0.78099372  -2.58969991
N    2.44621436   0.02032018  -1.96052247
C   -1.96676871  -2.60280879   1.73933211
H   -1.12989022  -2.90578235   1.14541158
H   -2.87429543  -2.86994374   1.23939884
H   -1.92562517  -3.09262931   2.68974368
C   -1.92430394  -1.07730063   1.94578204
N   -1.89268700   0.05850955   2.09949339
