21
Energy:   -120.83773988
O   -2.26527025   0.07852302   0.83664767
H   -2.90836586   0.75361759   1.05322837
H   -1.46624057   0.35556497   1.28501269
O    2.39856794   0.87552082   0.71427694
H    2.41592027   0.11073487   0.13892211
H    2.19797464   1.60885246   0.13271105
O    0.03126588   0.87852672   2.11890917
H    0.26012678   1.16145540   3.00423730
H    0.86716888   0.84628797   1.65365795
C   -0.62382820   0.81975072  -2.74068875
H   -1.41567870   1.40950442  -3.15307635
H   -1.03080580   0.10414416  -2.05718631
H   -0.11181719   0.30878243  -3.52913991
C    0.36467674   1.73629873  -1.99610986
N    1.10066359   2.41871039  -1.44173703
C   -0.41939643  -2.84341447   0.26306215
H   -1.33239526  -2.55079338  -0.21202334
H   -0.47947307  -2.63418177   1.31068401
H   -0.26142864  -3.89158581   0.11717826
C    0.75375139  -2.05712421  -0.35099959
N    1.62721326  -1.47169536  -0.80819647
