21
Energy:   -126.08683622
O    0.92515690  -1.05111804  -2.12860052
H    1.07089036  -1.77054317  -2.74294658
H    0.21712277  -1.35858870  -1.56257815
O    1.04209035   0.45156041   2.00785285
H    0.24373297   0.97603275   1.94632156
H    1.47816228   0.57850675   1.16526294
O    2.09828485   0.81349621  -0.51236235
H    1.73438993   0.16297757  -1.11289364
H    3.04340530   0.77271065  -0.65836142
C   -1.14606646   1.76784185  -1.55615595
H   -1.39677187   0.81074754  -1.96360833
H   -0.13061166   2.00336495  -1.79756747
H   -1.79312002   2.51249004  -1.97054689
C   -1.31546075   1.73462821  -0.02586107
N   -1.44158250   1.70989914   1.11351303
C   -1.51791804  -1.66968250   2.29462788
H   -2.08163331  -2.51882219   2.62033799
H   -2.05541442  -0.77419855   2.52723320
H   -0.57138179  -1.65728679   2.79344103
C   -1.29530071  -1.75422431   0.77315024
N   -1.12955198  -1.81716953  -0.35965902
