21
Energy:   -122.23377016
O    1.24329963   0.88584395   1.85304983
H    1.71111931   0.72971124   1.03268457
H    1.29894590   0.05388687   2.32313787
O    2.34951718   0.20500343  -0.56366591
H    3.14222293   0.43954178  -1.04620213
H    1.65638868   0.21008528  -1.22380142
O   -1.38271463   0.72630023   1.16241059
H   -1.83510282   0.83570662   1.99883573
H   -0.45717322   0.85155055   1.37197514
C   -2.19478891   1.48425030  -1.92466230
H   -2.61391516   1.78974980  -2.86055943
H   -2.04205676   2.34304860  -1.30495473
H   -2.86534926   0.80757068  -1.43747383
C   -0.84627254   0.78244340  -2.17077335
N    0.15775920   0.25991626  -2.35401421
C   -0.14606071  -2.45250777  -0.01907481
H   -0.49452106  -3.46297241  -0.06843858
H    0.61046650  -2.29951327  -0.76012700
H   -0.96226824  -1.78454446  -0.19943383
C    0.44135781  -2.17975911   1.37811797
N    0.87871759  -1.97668534   2.41839150
