25
Energy:   -385.09093663
Na  -0.45214448   0.38755562  -0.76544085
O   -0.09548901  -1.85203883  -0.35048513
H    0.80504548  -2.13642998  -0.19430843
H   -0.60958117  -2.65911685  -0.32669078
O    1.63828366   0.61790707  -1.79215249
H    1.96725427   1.27112023  -2.40966585
H    2.31253007  -0.06140478  -1.77954132
C   -1.01404006   3.24030408   3.38146312
H   -1.28687425   4.23574114   3.09938735
H   -0.08086388   3.26092629   3.90458455
H   -1.77038600   2.82980291   4.01733157
C   -0.87586589   2.36875155   2.11936008
N   -0.77298893   1.71984107   1.17966701
C   -5.10938047   1.58410035  -2.32652582
H   -5.17536189   1.63376019  -3.39333439
H   -5.35069061   2.53943847  -1.90939563
H   -5.79737897   0.85096704  -1.96036643
C   -3.67690424   1.19281779  -1.91846967
N   -2.61036058   0.90149014  -1.61465332
C    4.78957173  -3.67059678   1.07840737
H    5.38316182  -4.08557945   0.29079048
H    4.45769492  -4.45497215   1.72610494
H    5.37627735  -2.97130335   1.63667640
C    3.56848058  -2.95087625   0.47629545
N    2.65932271  -2.41501160   0.02799576
