25
Energy:   -377.31088312
Na   0.11958553  -0.88628417   0.76887612
O   -1.40195808  -2.00647058   2.23336888
H   -2.27134415  -1.67020641   2.45091454
H   -1.37341347  -2.87519063   2.63429598
O    2.37670695  -1.22808030   0.22053375
H    3.04490586  -0.66525841   0.61165213
H    2.84245066  -1.71843628  -0.45686248
C    0.65724896   2.27819467  -2.83867325
H   -0.09739388   2.77265555  -3.41393215
H    1.01819905   1.42828936  -3.37929797
H    1.46616780   2.95417942  -2.65538650
C    0.05963274   1.81685542  -1.49642850
N   -0.38531970   1.47336738  -0.49706628
C    0.77152060   3.06665197   3.66518832
H    1.78274801   3.36347400   3.85016394
H    0.25446731   2.96228568   4.59613551
H    0.28515828   3.80977308   3.06842891
C    0.76027741   1.72011827   2.91797979
N    0.75190635   0.71756273   2.36164907
C   -2.26993319  -2.51838626  -3.22860951
H   -2.99289188  -1.76725167  -3.46949903
H   -2.77060198  -3.39318837  -2.86951187
H   -1.70587084  -2.76428979  -4.10397469
C   -1.32065079  -1.98647924  -2.13886741
N   -0.61386690  -1.59045028  -1.32750488
