25
Energy:   -380.76319745
Na   0.31571249  -0.95200781   0.04978115
O   -1.08909049  -2.91644173   0.80372037
H   -1.60278358  -3.58315795   0.34782485
H   -1.38723014  -2.96332294   1.71209626
O    2.39714139  -1.80138020   0.85062129
H    3.27666261  -1.63404749   0.51198574
H    2.54149545  -2.16504584   1.72420074
C   -0.65972817   4.01324084  -0.50446168
H    0.33027813   4.38005410  -0.67834594
H   -1.06346513   4.47748524   0.37096546
H   -1.27810305   4.24235317  -1.34708801
C   -0.61352010   2.48738584  -0.30140663
N   -0.57911609   1.35131745  -0.15022291
C   -1.21405120   1.59933789   3.94466587
H   -1.02781451   2.52954397   3.44975909
H   -0.72507361   1.59753150   4.89639942
H   -2.26747655   1.47446157   4.08466594
C   -0.66970899   0.44286283   3.08567984
N   -0.26442147  -0.41818542   2.44612570
C    0.77562138  -1.29140158  -5.02989106
H    0.20029718  -2.13314676  -5.35449437
H    1.81135059  -1.46779650  -5.23249641
H    0.45373034  -0.41587644  -5.55404845
C    0.57626445  -1.08614231  -3.51670718
N    0.42783415  -0.93331744  -2.39007300
