25
Energy:   -393.90682518
Na   0.00059302  -0.11213372   0.07826629
O    1.61147117   0.81016362   1.49478646
H    1.75995663   0.67884612   2.43123701
H    2.34087205   1.36128392   1.21110950
O   -1.60988455  -1.09975500  -1.29411924
H   -2.32793812  -0.63274564  -1.72135824
H   -1.76937585  -2.02169695  -1.49615244
C   -2.83439653   4.02582984   0.86830090
H   -2.30009922   4.60447781   1.59258888
H   -3.79711127   3.76792805   1.25761580
H   -2.95370546   4.59817201  -0.02785139
C   -2.04607863   2.74044795   0.55533402
N   -1.45914011   1.78342270   0.32231596
C   -0.05197541  -4.29448829   2.99122098
H    0.42327460  -5.09848797   2.46908869
H   -1.06425330  -4.56166123   3.21215351
H    0.47321348  -4.10170472   3.90331211
C   -0.03493607  -3.03026246   2.11199251
N   -0.02224951  -2.08898886   1.45736695
C    2.88429129   0.54256411  -4.04982445
H    2.35185940   0.06988281  -4.84856650
H    3.84024893   0.07623297  -3.93329395
H    3.01858208   1.57985908  -4.27539977
C    2.08145105   0.40111048  -2.74328765
N    1.48370000   0.29579182  -1.77051161
