25
Energy:   -396.21665428
Na  -0.16702114  -0.41529729  -0.66154167
O   -2.29302793  -1.31132818  -0.94446057
H   -3.04680997  -0.90649010  -1.37358831
H   -2.60152340  -2.18005326  -0.68681908
O    1.47750718  -0.71010638  -2.27748464
H    1.65836016  -0.15614605  -3.03686070
H    2.10462321  -1.42957173  -2.35047049
C    1.42395363  -4.42358249   2.03810979
H    2.43551709  -4.22938609   2.32781190
H    1.37696356  -5.35101012   1.50653758
H    0.80775694  -4.48116132   2.91097027
C    0.92255073  -3.28540514   1.12995373
N    0.54923348  -2.43798036   0.45379026
C    0.90069058   2.22723944   3.54558169
H    1.34042928   3.16464608   3.27576909
H    1.58674448   1.67255629   4.15102017
H   -0.00042729   2.40117817   4.09570077
C    0.57732634   1.42606052   2.27076880
N    0.33656696   0.82954639   1.32161266
C   -1.55725332   4.09971911  -2.55002828
H   -0.70193233   4.74073533  -2.50079023
H   -2.32786104   4.48380359  -1.91477876
H   -1.91388320   4.05764201  -3.55796862
C   -1.16589599   2.68489746  -2.08449724
N   -0.87451267   1.63149844  -1.73788822
