25
Energy:   -372.02118233
Na   0.40014074  -0.47115401   0.13945717
O    2.05391150  -0.50884571   2.35289154
H    2.33145467  -0.42429050   3.26506041
H    2.73877710  -1.03609138   1.94154866
O    1.63246604  -2.34077612  -0.04455362
H    1.35598558  -3.20354596   0.26434539
H    2.40781510  -2.51412962  -0.57842088
C    1.56199146   2.38103375  -3.87911635
H    0.62134793   2.62640670  -4.32619805
H    2.18145620   1.88843338  -4.59919093
H    2.04383576   3.27701614  -3.54754327
C    1.33075281   1.44730989  -2.67649903
N    1.15858512   0.75211003  -1.78109576
C   -0.65828046   2.50304760   3.67757304
H    0.37227991   2.67012050   3.91194911
H   -1.11670956   1.94199256   4.46494785
H   -1.15724897   3.44375363   3.57268414
C   -0.76358033   1.71617248   2.35797481
N   -0.84198087   1.13030819   1.37547394
C   -4.06873579  -2.17370801  -1.53845377
H   -3.99443497  -2.98871613  -2.22775873
H   -4.52408686  -1.33610807  -2.02423235
H   -4.66594914  -2.46825810  -0.70091241
C   -2.66076496  -1.78229069  -1.05264452
N   -1.61246668  -1.49086271  -0.69093744
