25
Energy:   -385.78536406
Na  -0.11060332   1.55040763   0.76883518
O   -0.59727766   2.67721977   2.72883624
H   -0.92050616   3.57403366   2.81532349
H   -0.53745776   2.35587171   3.62849665
O    1.73137038   0.18258582   0.84003578
H    1.57627650  -0.74604812   0.66736051
H    2.67818697   0.24875573   0.96409916
C   -2.50357976  -2.65833132  -0.47618747
H   -1.69562874  -3.35852713  -0.51909629
H   -2.98084173  -2.60540432  -1.43238768
H   -3.21265767  -2.97655939   0.25922976
C   -1.95898169  -1.26873508  -0.09666774
N   -1.55350367  -0.23411751   0.18590195
C   -0.39656027   5.03712863  -2.88100803
H   -1.00973576   4.63717887  -3.66136449
H    0.58405001   5.23186939  -3.26229350
H   -0.82670007   5.94830962  -2.52096910
C   -0.30631176   4.02105488  -1.72729692
N   -0.23911764   3.26454179  -0.86830655
C    1.99704581  -5.11954222   0.10621057
H    1.84263507  -5.45239136  -0.89891079
H    1.42055198  -5.72424101   0.77471138
H    3.03452241  -5.20329917   0.35425527
C    1.55581049  -3.64962406   0.23369380
N    1.22729074  -2.55520317   0.32861087
