25
Energy:   -375.22969746
Na  -0.55702154  -0.75345863   0.08306857
O   -1.84710284  -1.18999990   2.01137103
H   -1.62287579  -0.82412414   2.86699303
H   -2.69513589  -1.61301513   2.14601835
O   -1.52899198  -1.95004035  -1.72630784
H   -1.34010014  -2.81489104  -2.09043008
H   -2.00725918  -1.49661568  -2.42049686
C    2.20783530   3.30843974   0.27817263
H    3.13202567   3.34199043   0.81636098
H    1.49261894   3.94362700   0.75765340
H    2.36701060   3.64427023  -0.72521174
C    1.67797453   1.86260957   0.25761325
N    1.28346910   0.78612329   0.24230586
C   -1.96792253   4.11038290  -1.49464048
H   -1.56851215   4.91650541  -0.91538404
H   -3.00366945   4.29218775  -1.69231295
H   -1.43554633   4.03810786  -2.41997880
C   -1.81829708   2.79252568  -0.71203931
N   -1.70689414   1.81132108  -0.12935717
C    2.80895520  -4.49348893   0.85233511
H    2.45484041  -5.37735782   1.34047307
H    3.53137649  -4.00761002   1.47437068
H    3.26175394  -4.75819146  -0.08029824
C    1.62717535  -3.53970538   0.59680949
N    0.74728653  -2.82957018   0.40655905
