25
Energy:   -374.30357056
Na  -0.26367372  -0.44965448   0.11073799
O   -2.15338001  -1.44441142   1.05677363
H   -2.38705462  -2.33012282   0.77902675
H   -2.70971221  -1.27681835   1.81745681
O    2.04315023  -1.43796270   0.44526086
H    2.12546535  -2.35930632   0.69139496
H    2.93332012  -1.17005765   0.21710236
C   -0.77914233   3.84283560  -2.44512453
H   -0.00555097   4.08583539  -3.14327043
H   -0.92419860   4.66320875  -1.77367411
H   -1.68902734   3.64959202  -2.97395840
C   -0.37420803   2.59049757  -1.64557612
N   -0.07271603   1.65807498  -1.05027598
C   -0.19130575   2.27317705   4.26691930
H    0.72534125   2.10111064   4.79137292
H   -1.01597042   2.12887173   4.93325499
H   -0.20575416   3.27577224   3.89343139
C   -0.30289684   1.28552649   3.09061415
N   -0.38598148   0.55017576   2.21480150
C    1.30596446  -3.37358676  -3.08206061
H    1.07395276  -4.41573962  -3.01143363
H    2.28451137  -3.19841648  -2.68625711
H    1.27656434  -3.07035646  -4.10777310
C    0.27382418  -2.56220348  -2.27711117
N   -0.49465118  -1.95809174  -1.67778973
