25
Energy:   -372.92281141
Na  -0.22489134   0.87490193   0.21626272
O    0.57040237   0.82542635   2.55042345
H    0.88575882   0.13843225   3.13763828
H    0.25240342   1.51347734   3.13496973
O   -2.04035050   2.38360797   0.41932340
H   -2.29659136   2.83505537  -0.38489530
H   -2.50620511   2.84850674   1.11436330
C    4.68169886   1.14452488   0.52025650
H    5.03386353   2.15490670   0.51729059
H    5.36411118   0.52735663  -0.02592650
H    4.61254382   0.79387633   1.52880113
C    3.29221048   1.08326293  -0.14093108
N    2.25767323   1.03765063  -0.63321528
C   -2.77989422  -3.29932901   1.70591879
H   -2.32915901  -4.19347869   1.32877915
H   -3.73761171  -3.16249235   1.24880608
H   -2.89898259  -3.37976987   2.76622361
C   -1.87881889  -2.09358755   1.38057163
N   -1.20792735  -1.19585822   1.13833587
C   -0.52081495  -0.87532592  -4.59488210
H   -1.43750758  -0.75817552  -5.13418775
H   -0.25665062  -1.91166261  -4.56137718
H    0.25463140  -0.32528369  -5.08583587
C   -0.69772535  -0.34403349  -3.16029817
N   -0.82944318   0.05153788  -2.09218522
