25
Energy:   -376.89516445
Na   0.84501539  -0.74630258  -0.42506444
O    0.99479250  -0.89472356  -2.72009829
H    0.34830497  -0.50421116  -3.30813382
H    1.64221981  -1.29012525  -3.30381675
O    3.21367216  -0.07066545  -0.36512149
H    3.22100161   0.87637528  -0.22622585
H    4.05439419  -0.37044407  -0.01935988
C   -1.54047600   3.69531805  -1.69200815
H   -2.50827438   3.45211447  -2.07816681
H   -0.96594057   4.18364168  -2.45118413
H   -1.64590414   4.34699304  -0.84992520
C   -0.82273237   2.40460127  -1.25555166
N   -0.28833961   1.44360396  -0.93058996
C   -1.51933653  -5.05882697   0.98330688
H   -1.32211528  -5.23775667   2.01964086
H   -1.11551367  -5.85975341   0.39991761
H   -2.57614406  -5.00073845   0.82619974
C   -0.86337673  -3.73216828   0.55752116
N   -0.37498485  -2.74441059   0.24050434
C   -0.73915255   2.40011941   3.21771026
H   -0.06360474   3.22962221   3.23916823
H   -0.96916649   2.10146258   4.21910767
H   -1.63941905   2.68622189   2.71515212
C   -0.08467634   1.22432227   2.46886986
N    0.40261096   0.34888785   1.91132413
