25
Energy:   -373.61975516
Na  -1.00755177  -0.55927446  -0.89298505
O   -2.20414203  -2.62328514  -0.48102429
H   -2.01860305  -3.50547572  -0.80281136
H   -2.90751999  -2.74353703   0.15696534
O   -0.67870243  -0.41403302  -3.16690917
H    0.04447422  -0.05432897  -3.68058259
H   -1.34020892  -0.65095351  -3.81691662
C    2.38661162   1.73561934   2.58306657
H    2.97605100   2.50195294   2.12459713
H    3.01978119   0.92208316   2.86969223
H    1.89940684   2.13091286   3.44982698
C    1.32817749   1.23462771   1.58290429
N    0.54012517   0.86161667   0.83823802
C   -2.76564466   4.04146182   0.70318440
H   -3.62288453   3.90642475   1.32912766
H   -2.96357498   4.81316463  -0.01109667
H   -1.92516614   4.31898857   1.30441136
C   -2.45664857   2.72570567  -0.03499388
N   -2.22658693   1.74606541  -0.58460117
C    3.25023965  -3.13661026   0.16615936
H    3.59316430  -2.84101063   1.13565600
H    4.00419092  -2.91780968  -0.56087769
H    3.04743210  -4.18721280   0.16458255
C    1.96344725  -2.36487834  -0.18053237
N    1.00537182  -1.79028885  -0.43866013
