13
Energy:   -237.63410638
O   -0.09970516   0.49207156   3.23275498
H   -0.86173607   0.73494097   3.75864012
H    0.64925381   0.65414787   3.80636075
O   -1.17347023   1.76722098   0.17258401
H   -1.30448812   2.38479281   0.89207772
H   -1.78073801   2.05872101  -0.50747879
O   -0.92730741  -1.94199938  -1.77707324
H   -0.60803128  -2.81359184  -2.01078496
H   -1.62295438  -1.76357673  -2.40990220
O    2.25662484  -0.42393079  -1.48665563
H    3.20968725  -0.33503750  -1.48528544
H    2.00599405  -0.30686220  -2.40301309
K    0.25517182  -0.50610075   0.15842697
