13
Energy:   -240.54355566
O    1.37514359  -0.15523258   1.22658626
H    1.87662676  -0.97048873   1.23677923
H    2.03833005   0.53472296   1.24600076
O   -0.00511744   0.02049450  -3.26137006
H    0.25350585   0.75741336  -3.81481060
H    0.09178240  -0.74779625  -3.82401701
O   -0.71794018   0.08096635  -0.62483554
H    0.10860795  -0.01073313  -0.15087222
H   -0.46844001   0.05980679  -1.54870446
O   -0.96490715   0.08698372   2.72450109
H   -0.78670336   0.06207483   3.66463661
H   -0.10455534  -0.00293495   2.31469476
K   -2.84880978   0.30071376   0.87531678
