13
Energy:   -248.54573684
O    1.33686587   2.58762079  -1.06216273
H    0.88391758   3.40520896  -1.26860712
H    2.26631890   2.80022919  -1.14670020
O   -1.61806644  -3.61312855   0.87469965
H   -1.45405228  -4.20153231   1.61166113
H   -2.30140404  -4.04995303   0.36630418
O   -0.20703161   0.76600984   2.00649155
H   -0.36781073   0.82944367   2.94795747
H    0.19087235   1.60494655   1.77392011
O    0.40694782   0.10069098  -1.86100255
H    0.73617350   0.97079857  -1.63571364
H    0.57000723   0.01826732  -2.80060343
K   -0.44934574  -1.27677841   0.24441313
