13
Energy:   -237.07955118
O    0.45109264  -1.80329238   1.19367904
H    0.60402550  -1.57580830   0.27656706
H    1.07083496  -2.51063633   1.37204901
O   -0.01372569   2.22626943   1.47623663
H   -0.34939479   1.95684324   0.62127018
H    0.81618885   2.66179599   1.28183934
O    0.47467807  -1.14186563  -1.49240826
H    0.02350876  -1.87754252  -1.90648268
H    1.29334515  -1.05665715  -1.98103447
O   -1.20082939   1.01753349  -0.71785529
H   -1.50345251   1.56935887  -1.43906250
H   -0.65307236   0.35382899  -1.13700969
K   -0.96502020   0.01928210   2.48299524
