13
Energy:   -234.60661000
O    0.87079055   0.06260587  -1.01053870
H    0.40740356  -0.55039012  -1.58127530
H    1.30125548   0.67109861  -1.61109542
O   -0.53533865  -1.67124091  -2.64258384
H   -0.98610307  -1.26629556  -3.38357140
H   -0.55408067  -2.60899157  -2.83364478
O   -2.08043808   2.40897724   2.51276233
H   -2.05688073   3.30658098   2.84440134
H   -2.93480184   2.07462880   2.78571935
O    1.97570927  -0.85757996   1.35130101
H    2.77410676  -1.38498361   1.37657301
H    1.80669768  -0.72255468   0.41886597
K   -0.12894220   0.64229033   1.87013099
