13
Energy:   -250.73039881
O    1.00531543  -0.33176729  -1.49538038
H    1.43231456  -0.46162213  -2.34216330
H    1.60196310   0.23860985  -1.01070179
O   -3.93176102  -1.29616917  -0.39201219
H   -4.59678299  -1.34759498   0.29452478
H   -4.43020247  -1.17766870  -1.20055756
O    0.27296362   0.03817105   1.79067544
H    0.18838452   0.18059896   2.73343337
H    1.19501631   0.21394251   1.60317859
O    2.54187524   1.30241105   0.05570680
H    2.46156173   2.25249391  -0.02869785
H    3.47681367   1.15207148   0.19542081
K   -1.30456579  -0.68421088  -0.20420690
