13
Energy:   -240.85504737
O   -1.00992188  -0.13470009   1.23760309
H   -1.61018618   0.00589258   1.96982457
H   -1.56831548  -0.10634027   0.46067056
O    1.22920912  -1.74963712   1.10770947
H    1.50416867  -2.35211230   1.79883374
H    0.43878219  -1.33394130   1.45217153
O   -1.65626302  -0.46161146  -1.57202892
H   -2.03366793  -1.33444758  -1.68136553
H   -2.22059478   0.11069945  -2.09185749
O    1.86858598   2.19676874  -0.69740119
H    1.97927674   2.52621429   0.19447606
H    1.86679957   2.98199973  -1.24479589
K    1.10143763  -0.30154389  -1.10012362
