13
Energy:   -237.46882420
O    3.09307128   1.53100140   2.73007456
H    3.41665224   1.09499598   3.51838065
H    3.34176724   2.44829025   2.84393120
O    2.57990119   0.31801192   0.35315957
H    2.82117089   0.74184423   1.17680206
H    3.41494708   0.14713109  -0.08242045
O   -2.57981432  -0.31925369  -0.35254631
H   -3.41482247  -0.14895030   0.08333210
H   -2.82113922  -0.74228571  -1.17658396
O   -3.09314660  -1.52990595  -2.73061751
H   -3.41691172  -1.09314668  -3.51843052
H   -3.34172152  -2.44711585  -2.84537099
K    0.00004468  -0.00060551   0.00028334
