13
Energy:   -244.92668584
O    2.90882893  -0.49612380  -1.05134001
H    2.00452815  -0.64586453  -1.32711105
H    3.42614705  -0.62086789  -1.84698611
O    0.16180534  -0.85642265  -0.90132524
H   -0.11574228  -1.59130885  -1.44826347
H   -0.64204009  -0.36412227  -0.73487795
O   -0.38579937   0.84303366   2.10785313
H   -1.04309518   0.79321471   1.41379827
H   -0.84241607   1.25430018   2.84174200
O   -2.15185062   0.49897962  -0.02635385
H   -2.84308351  -0.14365402   0.13317965
H   -2.59251582   1.21802486  -0.47914516
K    2.05770984   0.13148418   1.40829879
