13
Energy:   -249.49458231
O   -0.59212574  -0.28711200  -4.04375504
H   -1.16425498  -0.84607824  -4.56954657
H   -0.08988241   0.21411372  -4.68621613
O    1.77190866  -0.13211233   0.41859388
H    1.49237893  -0.02285376   1.32752597
H    2.72682714  -0.07557289   0.45273827
O   -1.89611556   0.18179292   0.49292795
H   -2.82238247   0.41415722   0.55826012
H   -1.55648702   0.29753715   1.38033291
O    0.73361537   0.19855411   2.94461428
H    0.94935282   0.99232073   3.43412807
H    0.57154097  -0.46209638   3.61804183
K   -0.15094281  -0.50920818  -1.38203373
