13
Energy:   -238.08698720
O   -1.46568341   0.97079438  -0.78501596
H   -2.21610002   0.49903001  -1.14632628
H   -1.79879222   1.84999601  -0.60536391
O   -1.25305797  -1.79980253   1.61873666
H   -1.86717643  -2.41774593   1.22220630
H   -1.68303663  -1.51911188   2.42655035
O    1.43304679   1.72466088   1.46598847
H    1.43216536   2.12573081   2.33511100
H    1.56193313   2.45736804   0.86369255
O    1.60498788  -1.04186368  -2.20108671
H    2.06941959  -1.67182484  -2.75216199
H    1.21464258  -0.42413302  -2.81936758
K    0.89484930  -0.75944326   0.36455454
