13
Energy:   -232.18539909
O    1.54397819  -1.31480806  -0.70340258
H    1.60586494  -2.24538458  -0.48792820
H    2.30713409  -1.14508342  -1.25568736
O    0.60306949   2.14448488  -0.91217934
H    0.52342531   3.02088542  -1.28875702
H    1.49235568   1.86807342  -1.13353570
O   -0.91319204  -0.29419197   3.35181709
H   -0.97549631   0.25022900   4.13664562
H   -0.66975237  -1.16012314   3.67912765
O   -1.63109882  -0.36567723  -1.67530127
H   -1.07438132  -0.06575437  -2.39387190
H   -1.94329038  -1.22574242  -1.95647052
K   -0.73512243   0.49673938   0.68387975
