13
Energy:   -252.81666073
O   -0.02382923  -0.15393429  -4.10900987
H   -0.62004370   0.27643207  -4.72182708
H    0.62485076  -0.58327892  -4.66678161
O    1.78619625  -0.52283231   0.60784922
H    1.46189955  -0.38296887   1.49751304
H    2.69835606  -0.78876006   0.72394726
O   -1.52184915   0.62599886   0.45349311
H   -2.45984100   0.71766826   0.62082467
H   -1.12266549   0.61668998   1.32343426
O   -0.25594219   0.10743391   2.83892410
H    0.02989014   0.77396472   3.46363876
H   -0.71456387  -0.54112940   3.37302487
K    0.14208947  -0.19878638  -1.45631323
