13
Energy:   -238.90824402
O    1.95366273   0.31736881  -1.08068077
H    2.44209441  -0.48502042  -1.26463149
H    2.23516188   0.93064881  -1.75956053
O   -1.66738355   2.58546040   0.56272348
H   -2.60082237   2.79402575   0.52498353
H   -1.24023089   3.42582360   0.72874197
O    0.69422754  -1.64016818   2.18086920
H    0.98349663  -1.88244740   3.06056006
H    1.35560640  -2.01477953   1.59908213
O   -1.16437957  -1.21645362  -1.42701310
H   -1.97655342  -1.67193876  -1.64868578
H   -0.55119162  -1.46968815  -2.11701648
K   -0.40978683   0.34058816   0.57733072
