13
Energy:   -249.21181543
O   -0.73773552  -0.54548451  -3.95842503
H   -1.32714643   0.00920733  -4.46944714
H   -0.37609542  -1.16194357  -4.59515614
O    1.35872909   1.59429836  -0.17577998
H    1.82855238   2.38212451  -0.44932684
H    1.44848347   1.58004626   0.77709613
O   -1.09243231  -1.04663144   0.97033811
H   -0.58077228  -0.75706191   1.72570911
H   -1.74425611  -1.64417037   1.33681431
O    0.39328554  -0.05743495   3.00013471
H   -0.08373014   0.46065203   3.64841997
H    1.06600872  -0.51380741   3.50550542
K   -0.12432336  -0.30413806  -1.38347839
