13
Energy:   -236.05342714
O   -0.76226621  -1.63954142   2.00715664
H   -0.06046053  -1.53444916   2.64953990
H   -0.97325460  -2.57284777   2.03274941
O    1.68760413   0.42382123   2.03794211
H    2.18672374   1.02887905   2.58659182
H    2.25872130  -0.33804645   1.93988768
O   -2.10654859   0.03152008  -2.15128886
H   -1.53102557   0.10825630  -2.91228601
H   -2.99069555   0.10442576  -2.51073394
O    0.76145522   1.19689470  -1.76730577
H    1.70378703   1.02966099  -1.75070808
H    0.64953776   1.87361826  -2.43495204
K   -0.67045191   0.31683198   0.23048461
