13
Energy:   -248.49647154
O    0.01830895  -0.63324878  -3.89972303
H    0.56439748  -0.32287837  -4.62200370
H   -0.66840894  -1.14893321  -4.32247586
O    2.27280245  -0.74143070   0.31581265
H    3.08450672  -1.22641216   0.16694688
H    2.30298013  -0.50155133   1.24197626
O   -1.57843647   0.80035138   0.41356495
H   -1.31955292   0.75608966   1.33402790
H   -2.43051119   1.23633124   0.42461329
O   -0.74024838   0.60806040   3.00430947
H   -1.09498504  -0.07214024   3.57677855
H   -0.58636954   1.35374452   3.58440286
K    0.21496927  -0.14258335  -1.27190624
