13
Energy:   -248.68144919
O    0.18354998   0.56407476  -1.73864672
H    0.14795734   0.73511571  -2.67976839
H    0.82274569   1.19330008  -1.40437709
O   -2.56989221  -3.14759182   0.16403303
H   -2.37340106  -4.06063449  -0.04567189
H   -3.49453426  -3.15182816   0.41152240
O    1.94336303   2.36691269  -0.66602355
H    1.71342246   3.29582106  -0.64392284
H    2.90049952   2.35663967  -0.67003023
O    0.30311861   0.10580290   2.15876481
H    0.47120223  -0.16566115   3.06114334
H    0.83729247   0.89131077   2.04100438
K   -0.91250686  -1.04088173   0.06393587
