13
Energy:   -251.63078654
O   -0.91023882   0.21237167  -3.83300483
H   -1.39069289   0.87558256  -4.32853187
H   -0.75260725  -0.49065628  -4.46319197
O    1.71417363  -0.77238492  -0.09931007
H    1.58686140  -1.07719771   0.79908439
H    2.61091769  -1.02856195  -0.31484491
O   -1.35586142   1.06264662   1.10940721
H   -1.99804880   1.55930299   1.61651634
H   -0.81030595   0.63292890   1.76815129
O    0.45287454  -0.36974692   2.62114798
H    1.08349643   0.14931364   3.12027122
H    0.20635965  -1.08116368   3.21220504
K   -0.43184780   0.28764413  -1.23824889
