13
Energy:   -234.07530361
O    1.51381119   1.75425659  -1.88802382
H    1.85636342   2.64601854  -1.82760498
H    1.96977747   1.37232076  -2.63799157
O   -2.71629165  -1.19709757  -0.25336616
H   -2.99319104  -1.65726224  -1.04570892
H   -3.45903339  -1.28061564   0.34462322
O    1.98806962  -2.05728922  -0.04273410
H    1.59624022  -2.92848704  -0.10369243
H    2.60090926  -2.12050022   0.68983931
O   -0.71281686   1.58318089   2.02126963
H   -1.49797065   1.98396703   2.39427880
H   -0.03377462   1.72679775   2.68044161
K   -0.17126734   0.14591918  -0.27343245
