13
Energy:   -251.87354428
O   -0.69956527  -2.13138869   3.59503260
H   -0.87789050  -1.94263084   4.51633734
H   -0.67603517  -3.08704471   3.54604537
O    1.43185134   1.12064249   0.38319327
H    2.00893881   1.81858776   0.69315181
H    1.44837749   1.20136273  -0.57045393
O    0.47690129   1.29675584  -2.64722087
H    1.14166020   0.97431801  -3.25579402
H    0.07117242   2.03392231  -3.10351192
O   -1.25560642  -0.31641607  -1.13329162
H   -1.93878937  -0.69832146  -1.68432808
H   -0.72954717   0.21114804  -1.73426551
K   -0.42426787  -0.52377169   1.45191160
