13
Energy:   -250.42071426
O    0.89612154  -1.03741544  -1.53550093
H    1.42522277  -1.52561144  -2.16633245
H    0.36241181  -0.45160227  -2.07235166
O   -1.61873183   0.95054678  -2.14094005
H   -1.53595079   1.61760464  -2.82241856
H   -2.47428776   0.55129340  -2.29858722
O    1.38282718  -1.43712877   3.52416511
H    2.06506566  -2.07313283   3.73929608
H    0.83929887  -1.39288823   4.31083633
O   -0.50349646   1.52417406   0.28958827
H   -0.98651294   1.37977098  -0.52409145
H   -0.91651666   2.29416548   0.68043270
K    1.10428955  -0.45106134   1.06137231
