13
Energy:   -240.76295100
O    2.29505992  -0.84372028  -3.52361856
H    2.43769193  -1.73678447  -3.83718566
H    2.65247252  -0.28662926  -4.21509355
O   -0.93917990  -1.42113024   0.56634039
H   -0.95847585  -0.72812529   1.22634315
H   -0.87017088  -2.23145945   1.07115341
O   -0.41728764   1.58702050   0.14845274
H   -0.55691838   2.52994428   0.06110373
H   -0.46303542   1.42389691   1.09054067
O   -0.97147639   0.50624034   2.68964415
H   -0.44138488   0.74115862   3.45125313
H   -1.85109807   0.81660144   2.90452441
K    0.11478620  -0.29702207  -1.76914898
