13
Energy:   -232.66996319
O    0.63541079   2.71082507  -0.41428158
H    1.26210997   3.03482423  -1.06120084
H    0.41732909   3.47861725   0.11408135
O   -1.57916416  -0.98434616  -1.54323313
H   -2.43392404  -0.77893756  -1.92194767
H   -1.32457075  -1.80845747  -1.95826877
O    2.82056525   0.21409722   0.57668534
H    3.20203617   0.68226651   1.31933553
H    3.47189984  -0.45022885   0.35159431
O   -1.83685771  -1.95207651   1.47011880
H   -2.45067945  -1.93498313   0.73584192
H   -2.32164383  -2.37588233   2.17835809
K    0.13047873   0.19239557   0.11749277
