13
Energy:   -233.71687982
O    0.25403462  -2.56039069  -1.38993018
H    0.38473207  -3.36925290  -1.88479577
H   -0.25725777  -2.82653886  -0.62574624
O   -0.46339648  -0.76739623   1.85149789
H   -0.80645657   0.06139094   2.18564374
H   -0.25672815  -1.27533213   2.63604947
O    2.16934088   1.80177323   0.02068688
H    2.23045324   2.74849067  -0.10668350
H    2.94563953   1.57808653   0.53406444
O   -1.82100353   1.48798162  -0.80360633
H   -2.49416917   1.67536882  -1.45779736
H   -2.29946319   1.43063133   0.02344818
K    0.38170276   0.04055826  -0.91070443
