13
Energy:   -249.42084369
O   -0.23295973  -0.90210164  -3.89534471
H   -0.06444342  -1.66990270  -4.44152750
H   -0.51105000  -0.22510661  -4.51225264
O    1.83590187  -1.01608644   0.91150267
H    1.55362482  -0.77198258   1.79295875
H    2.65752698  -1.48870755   1.04489423
O   -1.43408983   0.75414288   0.18524116
H   -1.06403351   0.87490373   1.05971643
H   -2.28782416   1.18523924   0.22429826
O   -0.18481333   1.06903069   2.63392092
H    0.19994068   1.92904665   2.80294380
H   -0.69498980   0.87559845   3.42039138
K    0.26612639  -0.63415752  -1.28234370
