13
Energy:   -232.84689031
O    0.98202537   1.69889442   0.29642983
H    1.67913955   2.20808415  -0.11707892
H    0.51449849   1.29438058  -0.43433622
O    1.19746992  -0.48903437  -3.08576168
H    1.45687787  -0.04606507  -3.89367106
H    1.40208320  -1.41108570  -3.24128205
O   -1.41164444  -1.04287450   4.14331326
H   -1.20129916  -1.50165351   4.95664501
H   -2.36666967  -0.97839357   4.14423759
O   -0.65214625   0.09325958  -1.13701759
H   -0.03536857  -0.14484746  -1.82920411
H   -1.47552994   0.25943286  -1.59599207
K   -0.17215515  -0.09273073   1.88969370
