13
Energy:   -248.98634367
O   -0.09669801   0.46069393  -4.02851968
H   -0.93856205   0.72276472  -4.40109946
H    0.40666784   0.13829170  -4.77612350
O    1.53480238  -1.49940570   0.40852919
H    1.30190608  -1.47247126   1.33657320
H    2.09911998  -2.26803325   0.32492784
O   -1.17667466   1.20025501   0.54093759
H   -1.83456042   1.85776007   0.76700233
H   -0.85078276   0.88687958   1.38463313
O   -0.21698786  -0.02929719   2.87903209
H   -0.91733240  -0.50700645   3.32349047
H    0.35122163   0.27638963   3.58608611
K    0.35375844   0.18157019  -1.39450003
