13
Energy:   -233.48750594
O    1.41613521   1.62857688  -1.97029427
H    1.95923603   2.34239349  -1.63602014
H    1.09422537   1.94667003  -2.81375301
O   -1.54374717   0.46799532  -0.03793677
H   -1.57104923   0.42861878   0.91806320
H   -2.05378462   1.24675297  -0.26071507
O   -0.89911403  -2.62413517  -0.31804575
H   -1.82764479  -2.56072491  -0.54174556
H   -0.84850165  -3.36198284   0.28961456
O    1.09631616   0.27164913   2.08917519
H    1.66168335   1.02139216   2.27485550
H    0.82553925  -0.04406506   2.95128670
K    0.73625981  -0.70319834  -0.91934397
