13
Energy:   -248.55263778
O    2.18465768  -2.12504125   0.18796985
H    2.26463349  -2.99647873  -0.19988635
H    2.85437004  -2.10421908   0.87155134
O   -1.05980734  -0.73736210   1.78459956
H   -0.44938445  -1.45674207   1.94617987
H   -1.64962498  -0.74921124   2.53839436
O    1.29033182  -0.06372612  -1.41987842
H    1.66010559  -0.77700836  -0.89956347
H    1.91466146   0.06053282  -2.13472390
O   -2.49877112   3.04237835  -0.70008963
H   -3.45371544   3.10766915  -0.70718286
H   -2.19606467   3.93122608  -0.88596694
K   -0.92017287   0.90748969  -0.33943540
