49
Energy:  -1233.84139012
O   -0.13490528   0.22688171   0.01591931
H    0.08686067   0.60860888   0.86523437
H   -1.08357806   0.10364493   0.04854606
O   -2.75476914   1.51661930  -1.87180616
H   -3.46641792   1.98871606  -2.30413997
H   -2.48133792   0.85773455  -2.51003660
O   -2.12680516  -2.43286843  -1.47112660
H   -1.30169256  -2.60864226  -1.01888262
H   -2.51680020  -3.29695488  -1.60337759
O    2.13740802   1.94373449  -0.91623770
H    1.93435157   2.57728190  -0.22803889
H    2.66593813   1.27592010  -0.47930325
O    0.30637092   1.26956437   2.46889226
H    1.04207542   0.71705968   2.73291746
H   -0.46749783   0.81172127   2.79712800
O   -0.26011425   2.65894651  -1.65810327
H   -0.20638196   3.15054508  -0.83854514
H   -1.17023996   2.36587014  -1.70292827
O   -1.60260133  -0.48696943  -3.35648117
H   -1.77870983  -1.24461658  -2.79863851
H   -1.73358926  -0.80976555  -4.24803974
O    0.20729072  -2.44282199  -0.06512579
H    0.18434763  -1.48594393  -0.05564718
H    0.24280419  -2.69118873   0.85860827
O    0.88127234   0.56391978  -2.76853083
H    0.05686597   0.17929565  -3.06627275
H    1.42139595  -0.18703853  -2.52244152
O    3.47726997  -0.06813896   0.39740651
H    4.42650741  -0.10657409   0.51446582
H    3.12010653  -0.30889805   1.25221712
O   -2.76878866  -0.32109179   0.22616434
H   -3.02519929   0.37038663  -0.38403484
H   -2.76088888  -1.11810560  -0.30387190
O    2.25818293  -0.65020424   2.82454062
H    2.75973304  -0.79108151   3.62755552
H    1.61960919  -1.36315873   2.81223935
O    2.26639648  -1.46828599  -1.67118217
H    1.69858375  -2.09133586  -1.21771839
H    2.82957471  -1.11254514  -0.98378812
O    0.67874886   3.49843415   0.85862985
H    0.77105919   4.33927004   1.30663171
H    0.50952893   2.86988841   1.56043233
O    0.14390697  -2.42401020   2.72977521
H   -0.05025878  -3.16864001   3.29903609
H   -0.60699515  -1.83969622   2.83444142
O   -1.85106240  -0.48950875   2.84946060
H   -2.54552026  -0.39675508   3.50165450
H   -2.30459909  -0.44357008   2.00778016
H    0.90709281   1.65375439  -1.77845763
