49
Energy:  -1226.81260847
O   -0.05475579  -0.00553003   0.12719368
H    0.57326476   0.16620443   0.82885551
H   -0.90852144   0.01218091   0.55963140
O   -3.17653255   1.16024346  -1.33720511
H   -3.96616840   1.56998078  -1.69050725
H   -2.97494042   0.45641609  -1.95382452
O   -2.38983115  -2.75923934  -0.82164261
H   -1.48318665  -2.85124047  -0.52878874
H   -2.76665423  -3.63251060  -0.71378378
O    1.84374283   1.78236515  -1.37532412
H    1.74205259   2.42882679  -0.67676969
H    2.53984808   1.20257208  -1.06627829
O    0.72856234   2.31501679   2.99648678
H    0.95650347   2.64605572   3.86521454
H    0.03219078   1.67830316   3.15740367
O   -0.68998532   2.25400305  -1.64101599
H   -0.50461807   2.80869968  -0.88326769
H   -1.59532724   1.97000072  -1.51479978
O   -2.19113651  -0.88760614  -2.87036929
H   -2.27685854  -1.57587409  -2.21069450
H   -2.51011208  -1.28889958  -3.67873184
O    0.26442086  -2.65740867   0.06343873
H    0.13442112  -1.70914146   0.07444801
H    0.92074144  -2.80176657  -0.61820337
O    0.35021923   0.12491877  -2.77024128
H   -0.51699745  -0.26064461  -2.89477226
H    0.91762024  -0.61981710  -2.57110204
O    3.56233509  -0.11428908  -0.39298815
H    4.50924594  -0.12364210  -0.25333065
H    3.18999683  -0.08830143   0.48844291
O   -2.66806950  -0.24598462   1.00127340
H   -3.04703667   0.28763413   0.30279881
H   -2.98080680  -1.13278265   0.82234188
O    2.05394302   0.14961013   1.88737539
H    1.70979032  -0.61353500   2.35148774
H    1.76564370   0.89821916   2.40958213
O    2.10107089  -1.87748081  -1.96551718
H    2.70846151  -1.36305238  -1.43384823
H    2.65950892  -2.33019479  -2.59752104
O    0.67442600   3.49481303   0.49052800
H    0.76947346   4.44066563   0.60260246
H    0.64443985   3.14924961   1.38267071
O    0.66487705  -2.07239524   2.77009341
H    0.91698083  -2.77096726   3.37397474
H    0.55289640  -2.51241081   1.92743186
O   -0.95771105   0.21083500   3.16700400
H   -1.75909882   0.09043355   2.65757983
H   -0.55894004  -0.65885626   3.19616956
H    0.48222500   1.33131142  -1.89183814
