49
Energy:  -1225.43745096
O   -0.50369042   0.22033967   0.29041457
H   -0.24384464   0.40379098   1.19321999
H   -1.45558484   0.12732318   0.32884365
O   -2.96191741   1.70199245  -1.67157636
H   -3.65328934   2.22448968  -2.07806541
H   -2.73703784   1.04633761  -2.33171101
O   -2.28424161  -2.32896807  -1.26429715
H   -1.42797309  -2.49140300  -0.86850559
H   -2.70310065  -3.18922671  -1.29157412
O    1.93628805   1.82984319  -0.62743723
H    1.81216184   2.25406384   0.22159832
H    2.67326992   1.23410300  -0.49259211
O    0.13561064   0.66481533   2.85241824
H    0.52985157  -0.20111743   2.95713883
H   -0.78132941   0.54236904   3.09830377
O   -0.44911570   2.73099554  -1.16616605
H   -0.39910606   3.05315461  -0.26619693
H   -1.36654828   2.48370643  -1.28191319
O   -1.95116068  -0.36894716  -3.17266094
H   -2.09033836  -1.12413330  -2.60121076
H   -2.17122430  -0.68681249  -4.04831240
O    0.21088370  -2.30868169  -0.08908672
H   -0.02824953  -1.39330337   0.05627381
H    0.91573853  -2.27281419  -0.73571260
O    0.50667457   0.65531626  -2.48567508
H   -0.32471002   0.30745818  -2.80820610
H    1.07773790  -0.11006205  -2.41998981
O    3.87281676  -0.09297022  -0.44250811
H    4.79677494   0.10281873  -0.59807102
H    3.85179473  -0.46726400   0.43822686
O   -3.16757200  -0.19450705   0.34391552
H   -3.33465934   0.49194909  -0.30191081
H   -3.09773391  -0.99765482  -0.17213501
O    3.66149324  -1.14856278   2.02743397
H    4.21325614  -1.32316776   2.78986603
H    2.79750805  -1.47702859   2.27617410
O    2.11369778  -1.52490040  -1.97853795
H    2.81387108  -1.11861404  -1.46773408
H    2.56978673  -2.06667555  -2.62250566
O    0.66512322   3.02973649   1.50278737
H    0.82364715   3.79574646   2.05444916
H    0.49873375   2.31864779   2.12157590
O    1.08511498  -1.97218956   2.52574667
H    0.79724719  -2.25650745   1.65826334
H    0.81901187  -2.68115943   3.11122315
O   -2.54532435   0.19817329   3.03589937
H   -3.28549475   0.23940583   3.64144005
H   -2.94361162   0.03593361   2.18075179
H    0.62206273   1.70120333  -1.40696788
