49
Energy:  -1223.90988823
O   -0.28889052   0.28322814   0.20385929
H   -0.07919159   0.65114185   1.06228676
H   -1.23450786   0.13707172   0.22989777
O   -2.88985945   1.33920466  -2.08940986
H   -3.57788900   1.64957914  -2.67806499
H   -2.53898686   0.55977720  -2.52023827
O   -2.58823150  -2.53800639  -0.87390960
H   -2.09221456  -2.84510934  -0.11503753
H   -3.28078376  -3.18895108  -0.98737422
O    1.89148026   2.15458741  -0.70886755
H    1.59801561   2.73642842  -0.00774603
H    2.63597558   1.68383931  -0.33422799
O    0.29468920   1.21380910   2.65702142
H    1.10250864   0.72639693   2.81854226
H   -0.40181186   0.63089999   2.95923837
O   -0.52950204   2.61180840  -1.55878296
H   -0.61038012   3.07896953  -0.72724760
H   -1.41081592   2.28303104  -1.73604869
O   -1.51817573  -0.93024837  -2.87895259
H   -1.81824613  -1.55753341  -2.22115088
H   -1.57920317  -1.40443818  -3.70820015
O    1.17961572  -1.92587040   0.62717142
H    0.61135303  -1.17469171   0.45676032
H    1.76018165  -1.96490240  -0.13286250
O    0.80763601   0.53293501  -2.47835616
H    0.03987729  -0.01580522  -2.63855157
H    1.50533203  -0.08679893  -2.26532576
O    3.86197430   0.56191696   0.33598227
H    4.74806026   0.86131503   0.53956104
H    3.51521499   0.25203273   1.17261934
O   -2.97445609  -0.07897642   0.30666170
H   -3.19656501   0.51761588  -0.40816492
H   -3.04272933  -0.95215281  -0.07951649
O    2.52651622  -0.45721080   2.50603410
H    2.83669255  -0.94683685   3.26780101
H    2.08455980  -1.11094653   1.96424451
O    2.78572725  -1.15352306  -1.54173371
H    3.31197221  -0.60881637  -0.95641950
H    3.42662806  -1.59912041  -2.09573823
O    0.24207675   3.48289689   1.05942855
H    0.17890790   4.32804133   1.50436947
H    0.18404974   2.83639034   1.76291558
O   -1.14918970  -3.14934444   1.38828439
H   -1.04720237  -3.97504636   1.86162018
H   -0.25698559  -2.89758081   1.14991754
O   -1.67703369  -0.71674232   2.76272522
H   -2.38353610  -0.39335316   2.20370317
H   -1.54790177  -1.62383485   2.48570548
H    0.67594588   1.70444266  -1.56790653
