49
Energy:  -1223.72440063
O   -0.05016203   0.28798901   0.57432187
H    0.07774872   0.84101686   1.34505586
H   -0.94064213  -0.05065437   0.66704574
O   -3.09732462   1.22021262  -1.20674025
H   -3.93335101   1.62361928  -1.44030991
H   -2.93315764   0.58660279  -1.90518111
O   -1.99765085  -2.71492177  -0.91704366
H   -1.08353930  -2.98281740  -0.82289568
H   -2.49730972  -3.52404378  -0.80798202
O    1.85104388   1.94480321  -1.03329306
H    1.79271682   2.58909551  -0.32780229
H    2.45905636   1.28284699  -0.70410219
O    0.28838607   1.80488207   2.77192555
H    0.91574200   1.22088494   3.19807546
H   -0.56446842   1.52413211   3.10366421
O   -0.67389889   2.53286388  -1.30790620
H   -0.51232870   3.09804217  -0.55245903
H   -1.56606459   2.21050681  -1.18000733
O   -2.16133896  -0.77507792  -2.86011715
H   -2.15002032  -1.52576890  -2.26634380
H   -2.49045703  -1.12792027  -3.68680658
O    0.68287145  -3.38852052  -0.75220877
H    1.19264231  -2.86480428  -1.37034048
H    1.01737234  -4.27897139  -0.85915850
O    0.29774200   0.38407573  -2.46516939
H   -0.54049333  -0.01708918  -2.69464727
H    0.92693116  -0.33627952  -2.50313199
O    3.37580378  -0.23914313  -0.30461278
H    4.26299144  -0.17565775   0.04908130
H    2.89259357  -0.74495359   0.34875964
O   -2.59118009  -0.59783587   0.80266341
H   -2.93742098   0.03740239   0.17590872
H   -2.50403199  -1.40781276   0.30009550
O    2.01186087  -0.16725509   3.56160888
H    1.96223160  -0.88108273   2.92582677
H    2.31252406  -0.58510860   4.36859831
O    2.14614534  -1.63587575  -2.32154975
H    2.71734000  -1.19856228  -1.69010265
H    2.71246314  -1.81809605  -3.07142424
O    0.72418783   3.67132691   0.83506448
H    0.88686663   4.55756241   1.15810334
H    0.58241799   3.15010325   1.62529170
O    1.65968941  -1.67306207   1.23662859
H    1.36959931  -2.44683292   0.75355690
H    0.99714506  -1.00895759   1.04628133
O   -2.16947207   0.70363929   3.24059655
H   -2.83850963   0.58148141   3.91416766
H   -2.46636240   0.16518118   2.50700891
H    0.47495338   1.58737055  -1.55480845
