49
Energy:  -1233.08626811
O   -0.02106934   0.26968416   0.14778070
H    0.38637609   0.69727188   0.90103286
H   -0.85502535  -0.06094446   0.48159792
O   -3.36426097   1.20900144  -0.77888577
H   -4.23123043   1.59171961  -0.91350599
H   -3.27948732   0.55633917  -1.47392335
O   -2.34905659  -2.65601398  -0.59289301
H   -1.42718040  -2.86181603  -0.43790374
H   -2.80712830  -3.48430005  -0.45025940
O   -1.03840122   2.50574207  -1.42697491
H   -0.76629148   3.07247600  -0.70517106
H   -1.88451713   2.15406529  -1.15012990
O    0.98272890   1.57677022   2.30816493
H    1.82078483   1.11631925   2.35151246
H    0.40028384   1.06873032   2.87286401
O    1.53600501   2.08151426  -1.52658183
H    1.49949425   2.75339964  -0.84579637
H    2.21671638   1.47700362  -1.23089486
O   -2.60735509  -0.74610288  -2.55795656
H   -2.54292366  -1.48770084  -1.95619838
H   -3.04240238  -1.10260878  -3.33246882
O    0.30974051  -3.04732511  -0.11870562
H    0.78731235  -2.51646375  -0.75615617
H    0.77822328  -3.88188416  -0.10236745
O   -0.10780428   0.40677943  -2.72310911
H    0.48124410  -0.31955325  -2.51891634
H   -0.97680491   0.00734102  -2.76207971
O    3.35898982   0.20136655  -0.70093818
H    4.28295627   0.35746010  -0.89626522
H    3.33039691   0.08774390   0.24906402
O   -2.41789987  -0.53006344   1.16488164
H   -2.90341838   0.12431946   0.66260020
H   -2.52381236  -1.34120677   0.66782944
O    3.16013318  -0.09239802   2.01417694
H    3.83501950  -0.24946919   2.67454724
H    2.54507678  -0.81781924   2.12235054
O    1.68238993  -1.55334575  -2.00032315
H    2.30998318  -1.01623985  -1.51671607
H    2.19441997  -1.93953268  -2.71089809
O    0.58276714   3.65769887   0.54574291
H    0.71395787   4.53151693   0.91379567
H    0.70448874   3.06434988   1.28692621
O    1.21467066  -1.92128415   2.26348149
H    0.82450648  -2.27945073   1.46616069
H    0.48631751  -1.49776600   2.71775663
O   -0.77419897  -0.31527791   3.37537055
H   -1.20322798  -0.43748091   4.22226628
H   -1.48178835  -0.38923730   2.73499634
H    0.11260202   1.58495254  -1.83589322
