49
Energy:  -1225.05817480
O    3.60691142  -0.53056249  -1.18613770
H    4.45205550  -0.45255050  -1.62871816
H    3.72396967  -0.06030298  -0.36067710
O    0.58910962  -1.17154245  -4.11822468
H    0.14448945  -1.82425279  -3.57737908
H    0.47311367  -1.48407909  -5.01549701
O   -1.13915575   0.09301931  -1.49044230
H   -2.04860846   0.13697967  -1.19515414
H   -0.98985943  -0.83518580  -1.67038040
O    1.32302210   0.59477995  -2.21555907
H    2.15883347   0.26170375  -1.88889188
H    1.13721345   0.06072710  -2.98788966
O    0.60904300   2.19946071   3.41535602
H   -0.03266755   1.52153004   3.20357921
H    0.52716205   2.32029550   4.36136147
O    3.43669905   0.79643885   1.21965725
H    3.05802289   1.67553790   1.21506774
H    3.96434037   0.76658128   2.01773933
O   -1.15958196   0.40028470   2.33687825
H   -1.54198074   1.13126219   1.85141464
H   -0.44168958   0.09368603   1.78292913
O    1.91272523   3.06856130   1.20557316
H    1.46122581   2.85662247   2.02255666
H    2.17016283   3.98517491   1.30445299
O   -3.15155297  -1.38043119   1.76433053
H   -3.65896299  -1.58564206   2.54960463
H   -2.42565390  -0.84299410   2.08129074
O   -2.37751426  -3.26808618  -0.11956997
H   -2.84943504  -4.08549725   0.03968381
H   -2.64214986  -2.69420683   0.59936142
O   -0.49271752  -2.49348555  -1.92593322
H   -1.16775662  -2.88551678  -1.37197873
H    0.32689385  -2.66196547  -1.46108534
O   -2.28245837   2.37797109   0.77991957
H   -2.79565197   3.13621319   1.05908459
H   -2.91867060   1.79896429   0.36013751
O    1.86629746  -2.58789371  -0.50821408
H    2.29922120  -3.40152110  -0.24971967
H    2.57408440  -2.03311173  -0.83606533
O   -3.64752828   0.29566781  -0.36646546
H   -3.61757472  -0.34716959   0.34212096
H   -4.46197204   0.10301226  -0.83100506
O    0.93881855  -0.30402368   0.74790058
H    1.13777200  -1.18720587   0.43703311
H    1.77921183   0.03809080   1.05274264
O    0.04785434   2.27207240  -0.64563956
H   -0.76843802   2.45319945  -0.17970863
H    0.73337169   2.60834791  -0.06839041
H    0.13117239   0.98502754  -1.40639846
