49
Energy:  -1223.35961725
O   -1.54585301   1.07340510  -1.43867650
H   -1.21208079   1.93978758  -1.20584751
H   -1.64008442   0.61950893  -0.60122169
O   -0.39145572   0.83859819  -3.77431286
H    0.26809037   1.48798449  -3.53032877
H    0.10620789   0.13745945  -4.19498763
O   -2.73368000  -2.61071649  -0.65162925
H   -3.52959811  -3.14180939  -0.67783106
H   -2.07869629  -3.17971553  -0.24731715
O    1.49416717   2.44942498  -2.59449226
H    0.96876540   2.93114648  -1.95564234
H    2.10403121   3.09975047  -2.94288063
O    0.10539844   2.50861898   1.69066985
H    0.91679107   2.18482588   2.08186274
H   -0.58879047   2.13140333   2.23107892
O    1.66875143  -0.17358954  -1.67108386
H    1.80960636   0.74729193  -1.89101354
H    2.07796119  -0.28055773  -0.81240055
O   -1.56696055  -1.21866619  -2.69504435
H   -1.99838493  -1.78241093  -2.05294099
H   -0.88896709  -1.77189672  -3.08297822
O    0.45260248  -1.69355271   1.76747169
H    0.45655857  -1.37582662   2.67039268
H    1.27716354  -1.37738540   1.39818977
O    0.92403628  -1.63558913  -3.86021255
H    1.56849916  -2.20025310  -4.28689045
H    1.37968760  -1.28807972  -3.09349817
O    2.26625447   1.26600002   2.90093308
H    2.81656326   1.76404445   3.50536987
H    1.70185203   0.74037144   3.46785134
O   -1.78731721  -0.45601230   0.79480932
H   -2.29834553  -1.17309734   0.41948151
H   -0.96691748  -0.86473224   1.07071538
O    0.37546378  -0.29232990   4.16188912
H    0.24011131  -0.60058454   5.05793077
H   -0.43095917   0.17531642   3.94458566
O    2.75277266  -0.50254815   0.85004106
H    2.69490965   0.18490458   1.51358643
H    3.63931738  -0.85141108   0.94258811
O   -0.32301269   3.43832122  -0.79969660
H   -0.71740504   4.30759528  -0.72863941
H   -0.12673523   3.18928464   0.10345775
O   -0.72891345  -3.91187520   0.61186056
H   -0.38047013  -4.74580509   0.92710656
H   -0.22542410  -3.24795152   1.08296105
O   -1.78514639   1.03201679   3.09862402
H   -2.64414036   1.32944586   3.39845255
H   -1.97083695   0.51071645   2.31760109
H   -1.19122352   0.25750790  -2.64114317
