49
Energy:  -1229.98665736
O   -0.16363431   0.31605021   0.04369830
H   -0.03537363   0.69846725   0.91176411
H   -1.01298627   0.65148668  -0.24320842
O   -2.41195301   1.27466667  -1.12393264
H   -3.01094828   0.81183164  -0.53808262
H   -2.37637275   0.72980054  -1.91011760
O   -2.46744205  -2.41327822  -1.30184221
H   -1.58661570  -2.53194736  -0.94646295
H   -2.78329947  -3.30250204  -1.46230078
O    2.24995155   1.84616431  -0.94313763
H    2.10151077   2.49136537  -0.25182528
H    2.74487750   1.14675537  -0.51639734
O    0.24136795   1.43124326   2.46020596
H    0.99592582   0.89814637   2.71056964
H   -0.51442795   0.95161752   2.79926873
O   -0.10252121   2.71720322  -1.65114274
H    0.06014769   3.27659426  -0.89163478
H   -1.02110099   2.46113125  -1.56825622
O   -1.72579899  -0.47135609  -3.13016247
H   -1.99748259  -1.24128904  -2.63053948
H   -2.11682983  -0.59615267  -3.99488933
O    0.03744243  -2.33404249  -0.28801499
H   -0.03394429  -1.39227978  -0.13239111
H    0.82147056  -2.42916458  -0.82883246
O    0.84827204   0.49028344  -2.70572829
H   -0.00621053   0.14555144  -2.96505671
H    1.37137626  -0.28710700  -2.51013199
O    3.51335113  -0.26419856   0.26170471
H    4.45833862  -0.23316051   0.41092648
H    3.13443436  -0.33931274   1.13749680
O   -3.51416982  -0.64596489   0.57179282
H   -4.45621596  -0.78304680   0.67174014
H   -3.23310870  -1.33807884  -0.02671765
O    2.33140120  -0.35880648   2.74179454
H    2.78575842  -0.51530430   3.56962291
H    1.68330839  -1.06111104   2.68724309
O    2.30823527  -1.66709938  -1.79406244
H    2.81098135  -1.29864243  -1.06762063
H    2.94390894  -2.18578585  -2.28712955
O    0.95484454   3.54834471   0.81197564
H    1.08733105   4.39032569   1.24757545
H    0.66360336   2.96066395   1.50914258
O    0.31247408  -2.09393457   2.46025796
H    0.22154818  -2.42251940   1.56583282
H   -0.51005427  -1.63559933   2.63232700
O   -1.86974028  -0.39762443   2.81809437
H   -2.42456792  -0.51028453   3.58991419
H   -2.47135290  -0.47129549   2.07723900
H    0.97943147   1.63487121  -1.76073800
