13
Energy:   -250.53244999
O    1.91327535  -0.85857666  -3.47831104
H    1.70742256  -1.61687905  -4.02496812
H    2.47590210  -0.31252924  -4.02741504
O    1.15885509  -0.25251496   1.49662350
H    1.82994860  -0.44605768   2.15115124
H    0.43369370   0.11893902   1.99901253
O   -1.75104842   0.19376515  -0.65884325
H   -2.53840470   0.23927035  -1.20127408
H   -2.01879541   0.56000150   0.18401755
O   -1.16577847   0.78902134   2.53937897
H   -1.32057242   1.69899962   2.79277631
H   -1.51915382   0.27440757   3.26500310
K    0.80071999  -0.35846474  -1.10761373
