13
Energy:   -249.29630674
O   -1.40004455  -0.07661828  -1.05969880
H   -2.09870652  -0.00151321  -1.70966997
H   -1.84676955  -0.34632880  -0.25724951
O    3.35027172   0.95240403  -2.25585402
H    3.69801552   1.84360399  -2.22316263
H    3.88421393   0.51051924  -2.91606262
O   -2.53880789  -0.88695151   1.34718888
H   -3.29348051  -0.46048780   1.75318123
H   -2.70054599  -1.82311620   1.46410043
O    0.69898535   0.00077976   1.84704764
H    1.25009898   0.18547069   2.60757040
H   -0.19498750   0.01749698   2.18875647
K    1.27631106   0.10198642  -0.81205741
