13
Energy:   -235.29226315
O    1.97576446   1.17614066  -0.71409940
H    1.63841478   0.29925785  -0.89713923
H    2.90507410   1.04178298  -0.52818690
O    0.05899968  -0.74022067  -1.25855793
H    0.10033999  -1.47739991  -0.64938670
H   -0.07689714  -1.14439320  -2.11553428
O    0.31472136  -2.88090078   0.36327386
H    0.32289109  -3.79221909   0.07058966
H    0.05381596  -2.92658540   1.28309620
O   -2.11442301   2.74552004   1.38854598
H   -1.86963408   3.13834701   2.22639871
H   -3.02030681   2.46201473   1.51196039
K   -0.47051518   2.18218771  -0.63210360
