13
Energy:   -243.03279316
O    0.45769715  -0.08051310   2.71294152
H    1.00942291  -0.79106195   3.03997496
H   -0.13205326   0.11943156   3.43988610
O   -0.92419948  -2.56170640  -1.01381543
H   -0.53942157  -3.01251329  -1.76544762
H   -1.67268523  -3.10440495  -0.76586540
O   -1.49970533   2.30002005  -0.15993369
H   -2.40144811   2.16777810  -0.45251507
H   -1.42966016   3.24394052  -0.01731647
O    2.05002898   0.49899885  -1.49381055
H    2.91912509   0.79539142  -1.22352323
H    2.17029468   0.19023235  -2.39182572
K   -0.05997330   0.16783099   0.07497822
