13
Energy:   -250.15153443
O   -1.34819109  -2.23057849  -3.02367992
H   -0.88241238  -2.24866904  -3.85971508
H   -2.13038839  -2.76165446  -3.17320431
O    1.29863380   1.61837888   1.94017046
H    2.01934686   2.16594192   1.62875553
H    1.26766170   1.77626292   2.88375151
O    1.33103568  -1.02109280   1.08590730
H    1.41763627  -0.16958091   1.51446266
H    1.98576370  -1.57283644   1.51385825
O   -1.39160059   1.46462431  -0.10306203
H   -2.17315851   2.00369215  -0.22473760
H   -0.88794988   1.92085438   0.57104622
K   -0.50336826  -0.96246422  -0.78801136
