13
Energy:   -232.44551082
O    1.67768509   1.68701237   0.32325959
H    1.86901845   2.33532876   1.00098318
H    1.54811084   0.86909513   0.80331558
O   -0.72970439  -0.24268404  -2.16464631
H   -1.21195908  -0.89083065  -2.67803527
H   -1.14442717  -0.26283043  -1.30218994
O    1.07185415  -0.79466367   1.37099220
H    0.23253594  -1.16609491   1.09930187
H    1.55365136  -1.53486669   1.74004882
O   -1.76033853  -0.47949320   0.34556859
H   -2.55386635  -1.01051545   0.41310252
H   -1.79851237   0.10629654   1.10162745
K    1.24560861   1.45662701  -2.23929085
