13
Energy:   -251.46419173
O    0.43037505  -1.64374793  -0.76140425
H    0.40538018  -2.56185942  -1.03099356
H    0.09575804  -1.16226992  -1.51800337
O   -0.63118439   1.84051760  -0.10272415
H   -0.96594023   1.56631774  -0.95653023
H   -1.15215099   2.61111951   0.12310398
O   -0.70159450   0.13086362  -2.67311251
H   -0.17727557   0.28493413  -3.45897751
H   -1.56741244  -0.10666452  -3.00503347
O    1.07675555  -0.31239749   3.71502497
H    0.53471374   0.11231796   4.37988534
H    1.66750767  -0.87794799   4.21241457
K    1.00377415   0.12464199   1.10462745
