13
Energy:   -248.64442689
O    1.18131314   1.62473078   3.48084517
H    1.82348796   1.30723599   4.11569980
H    0.85587027   2.44247530   3.85715979
O    1.15191160   0.54495497  -1.41544152
H    0.50439498   0.13677696  -1.99019780
H    1.77845114   0.95420542  -2.01226153
O   -0.79353800  -0.70478263  -2.90496878
H   -1.42282427  -0.23727610  -3.45421216
H   -0.58822777  -1.49909680  -3.39806568
O   -1.40100462  -1.40090381   0.94353805
H   -1.71582998  -1.73599634   0.10399661
H   -1.92962618  -1.85782643   1.59776494
K    0.54132486   0.44055091   1.14985886
