13
Energy:   -232.78196416
O    2.61679388   0.52575297   1.88703800
H    2.63908447   1.01578071   2.70899164
H    3.47491081   0.10482042   1.83524060
O   -1.36595056   0.77470645   1.77289495
H   -1.16631854   0.84633639   2.70630164
H   -2.31903453   0.69369166   1.73684786
O    0.53341325   0.42217015  -2.87709874
H    1.42781353   0.44266446  -3.21748082
H   -0.01615722   0.62513129  -3.63407359
O   -1.79816913  -1.68198251  -0.65915373
H   -1.50977345  -2.39336231  -1.23099160
H   -2.69547404  -1.49894904  -0.93767571
K    0.21032758   0.11397837  -0.17865187
