13
Energy:   -259.14389212
O    1.04018964  -0.10524037   1.42793983
H    0.57029182   0.70540507   1.62359734
H    1.63070958  -0.22579659   2.17156893
O    0.77329025  -3.27117368  -2.45615078
H    1.41666246  -3.33469431  -3.16203263
H    0.34757256  -4.12836946  -2.44160099
O   -0.51967458   2.19831974   1.65059259
H   -1.16309468   2.26187220   2.35642792
H   -0.09391569   3.05549554   1.63607142
O   -1.25065680   0.99556664  -0.75942503
H   -1.09270561   1.50451605   0.03571883
H   -1.92821448   1.48434890  -1.22658598
K    0.27747268  -1.17378501  -0.88130154
