13
Energy:   -244.62931963
O   -0.56001750   0.93867743   1.88961733
H   -1.46462365   0.67373231   2.05612152
H   -0.43910766   1.72623653   2.42005425
O   -0.50712241  -1.22548315  -2.81251398
H   -0.70358131  -0.39589954  -2.37728211
H   -1.17768747  -1.30528142  -3.49089926
O   -0.27523733   0.86639324  -0.92131066
H   -0.43396328   0.97151928   0.01676526
H   -0.25549342   1.76030186  -1.26302604
O    1.52427576  -0.89925270   1.50050722
H    2.06899906  -1.11924059   2.25622787
H    0.90982868  -0.24356702   1.83029945
K    1.36986097  -1.77501660  -1.03425117
