13
Energy:   -237.11173010
O    0.99532499   1.49105779   0.40208055
H    1.94707656   1.53791780   0.49266166
H    0.84516607   1.46539442  -0.54291974
O    0.23956466  -2.46819551   2.48729998
H    0.19651293  -3.20594273   1.87893542
H    0.47786754  -2.86257942   3.32629040
O   -1.61099291  -0.10976178  -0.48036261
H   -1.05517778   0.20452802  -1.19347081
H   -2.10573508  -0.83427957  -0.86316284
O    0.13460883   1.28643100  -2.12925095
H    0.73601277   0.88094374  -2.75385101
H   -0.04532316   2.15185032  -2.49654609
K   -0.70279059   0.39895470   1.93964621
