13
Energy:   -248.49622614
O    3.04521172  -1.88001183  -1.61234802
H    3.12016409  -2.67862583  -2.13467902
H    3.94911715  -1.59456045  -1.47929037
O   -0.49106846  -0.89999324   1.55319070
H   -1.10708545  -0.18896296   1.72980005
H   -0.58534658  -1.49041402   2.30068438
O   -0.26734194   1.43419495  -1.91365960
H   -0.09039203   1.82752024  -2.76818624
H   -0.94525967   1.99005142  -1.52936417
O   -2.20875464   1.18920793   1.95673315
H   -2.02952923   1.88652417   2.58749473
H   -3.16208444   1.10323628   1.95846850
K    0.82316818  -0.69107912  -0.72199696
