19
Energy:   -509.70566079
O   -2.33227401   2.24690133  -0.67715455
H   -3.22318371   2.09065427  -0.99036152
H   -2.11161278   3.11830093  -1.00609713
O    1.03006032  -1.44384869   1.98366369
H    1.39299608  -2.00765392   2.66676921
H    1.57889885  -1.61134853   1.21753582
O    2.38138090  -1.68148675  -0.33247435
H    1.97378625  -1.39414569  -1.14950163
H    3.24356755  -2.00400449  -0.59486401
O    0.97833906  -0.70795095  -2.52441132
H    1.46520381  -0.12299100  -3.10494247
H    0.62105145  -1.37969379  -3.10522022
O   -1.47819082   1.06912505   2.52316835
H   -2.00111306   1.74478903   2.09158711
H   -1.68845169   1.16005586   3.45255191
O   -0.47255384   0.26904680  -0.35010567
H   -1.09757979   0.93655389  -0.63296376
H   -0.05752741  -0.02940785  -1.15937060
Li  -0.29451891  -0.13237881   1.52525989
