19
Energy:   -510.92757919
O   -1.52934745   0.88620640   1.38844391
H   -2.42876634   1.11911195   1.61873177
H   -1.11305760   0.68000093   2.22535126
O    1.08498673  -0.56404244  -0.04449198
H    1.68565182  -0.77602675  -0.75898197
H    1.60324631  -0.69058164   0.75025747
O   -0.74852230   1.42834723  -1.95155419
H   -1.37589651   1.26766224  -2.65640438
H   -0.54025955   2.35985166  -2.02337329
O   -0.13061911   0.59874297   3.78132484
H    0.03134708  -0.15276971   4.35161204
H   -0.24848149   1.33473683   4.38186906
O   -1.86224604  -1.15235758  -1.15205570
H   -2.72278390  -1.57101842  -1.17278096
H   -1.24432221  -1.86591511  -1.31091930
O    3.08736547  -1.15763449  -2.15815577
H    3.14257426  -0.61379649  -2.94391913
H    3.99583212  -1.38329344  -1.95816020
Li  -0.71400716   0.26095017  -0.32967529
