19
Energy:   -540.46582269
O   -0.16390494  -0.03137927   3.79230201
H    0.12223850   0.61916696   4.43350664
H   -0.52460298  -0.74477334   4.31879765
O    0.08905135   0.34780064  -3.67517902
H   -0.59870752   0.56690362  -4.30383907
H    0.85653478   0.15910053  -4.21517282
O    0.46756405   1.43667675  -1.14277095
H    0.56057953   2.38681065  -1.07330485
H    0.36614830   1.27339024  -2.08047250
O    1.42494309  -0.86250282   1.15682247
H    1.63358431  -0.50467347   2.01975865
H    2.01110869  -1.61302867   1.06011326
O   -1.31098877   0.38006119   1.34820906
H   -0.99229365   0.23973964   2.23982284
H   -2.12350047   0.87387008   1.45870510
O   -0.47175285  -1.33833401  -1.44469161
H   -0.38118871  -0.93665924  -2.30880235
H   -1.00144256  -2.12072797  -1.59805512
Li   0.01981444  -0.10658071  -0.00529416
