19
Energy:   -512.82594091
O    0.90012193  -1.34331744   1.73246452
H    0.67985961  -1.70460820   0.87386954
H    1.16022308  -2.10328095   2.25307445
O    1.73872486   1.51397027   0.54852987
H    2.49548673   2.09565178   0.47648853
H    1.46439506   1.36390843  -0.35615596
O   -1.92425965   0.05652376  -0.71675659
H   -2.79642004  -0.07084273  -1.09004720
H   -1.51642963  -0.80841085  -0.75911969
O    0.13732462  -1.86084073  -0.85914095
H    0.26568744  -2.65058883  -1.38454819
H    0.52836547  -1.15965696  -1.38035129
O   -1.20485363   1.07290312   1.73590289
H   -1.89060779   1.53832029   2.21481826
H   -1.62871613   0.78777363   0.92641317
O    0.57333202   0.75188293  -1.82364082
H    0.68321053   1.11926529  -2.70067489
H   -0.36959253   0.79071117  -1.66358612
Li   0.65853514   0.57108058   1.84468845
