19
Energy:   -517.13650986
O   -0.21799007  -1.88004525   0.21229175
H   -0.62450089  -1.51596370   0.99869205
H   -0.55650161  -2.77380117   0.15898008
O   -0.71102657  -0.40234711  -2.56313564
H   -1.11629891   0.46253744  -2.62607121
H   -0.87320670  -0.80599002  -3.41577968
O    1.31741650   0.83214791  -0.35767284
H    0.96236914   0.79404495   0.53042704
H    1.69503662   1.70891705  -0.42774968
O    0.06278587   0.75047945   2.20243392
H    0.32762661   0.38376574   3.04600507
H   -0.72876909   1.25236681   2.39680903
O   -2.24424541   2.35739060   2.58229376
H   -3.10105415   2.59473285   2.22764001
H   -2.13915511   2.91778586   3.35115333
O    2.08580717  -1.81228690  -2.20898326
H    2.25175605  -2.72357714  -2.45031894
H    2.83892205  -1.33196276  -2.55298695
Li   0.68940759  -0.81638749  -1.16357379
