19
Energy:   -532.73112857
O    0.42555393   0.03041531   3.23522601
H   -0.28329986   0.12424367   3.87158628
H    1.20082311  -0.15494750   3.76516014
O    0.03057006   2.11059270   0.49966745
H   -0.49398156   2.89498864   0.33904223
H    0.17791896   2.10994783   1.44545798
O    2.43084581   0.70889480  -1.11702121
H    3.00692597  -0.00189997  -1.39832941
H    2.95643364   1.50136617  -1.22646708
O   -2.38283626  -1.86247526  -1.49518613
H   -2.32499416  -2.74480185  -1.86177300
H   -3.31621306  -1.73325845  -1.32683352
O    0.32770245  -0.98774406   0.68071810
H    0.36078644  -0.75962136   1.60974841
H   -0.16586545  -1.80738704   0.65229342
O   -0.61658733   0.16382650  -2.07019640
H   -0.69024269   0.41138119  -2.99189234
H   -1.24709919  -0.54817019  -1.96181118
Li   0.54823668   0.51365428  -0.56818514
