19
Energy:   -514.29868627
O    0.23545120   0.56253380   3.71989719
H    0.37112191   1.30987775   4.30239381
H   -0.05531936  -0.14271460   4.29809181
O   -0.12405015   1.82945499  -0.73807774
H   -0.22604539   2.67620824  -0.30352307
H   -0.32124550   2.00645040  -1.65787036
O    1.59861373  -0.14970745   1.44060280
H    2.47126241  -0.45255959   1.69159425
H    1.19180652   0.11922688   2.26426174
O    0.45954856  -1.26720296  -1.42563240
H    0.91499988  -2.10382223  -1.51978196
H    0.20692427  -1.02974927  -2.31783673
O   -1.71320154  -0.50707788   1.02161749
H   -1.97963006  -0.41886317   1.93674909
H   -2.48118757  -0.87224966   0.58221007
O   -0.28405285  -0.52085021  -4.05687468
H   -0.34522289   0.22074934  -4.65897117
H   -0.16250101  -1.28169605  -4.62482768
Li   0.16766384   0.05736036   0.07555771
