19
Energy:   -533.04652624
O   -1.22656634   1.57725917   0.25381182
H   -1.76971785   2.23617342  -0.17868131
H   -1.23000079   1.83150731   1.17662162
O   -0.04690568  -0.87399216   1.70358502
H    0.12625816  -0.39304205   2.51286441
H   -0.18014714  -1.77882932   1.98598241
O    1.65479186   0.43760172  -0.63180904
H    2.08388422   1.28150413  -0.77301926
H    2.23787170  -0.20001004  -1.04375684
O   -1.26096050   2.10001402   2.93472069
H   -0.65947414   2.65320308   3.43314609
H   -2.10428803   2.20481300   3.37522914
O   -0.80699905  -1.30281436  -1.45989278
H   -0.08508676  -1.60484468  -2.01112067
H   -1.58366821  -1.72165034  -1.83082847
O    1.48053817  -1.96213655  -2.84919834
H    2.06071173  -2.71213375  -2.71829881
H    1.59592564  -1.72728770  -3.76993912
Li  -0.19584873  -0.03631320  -0.09337485
