19
Energy:   -544.10337797
O    0.61117017   1.28722139   1.27824229
H    1.18350433   1.31133580   0.51137596
H    0.87530947   2.04583818   1.79878320
O   -0.53786450   0.71983865  -2.65083424
H   -0.80748955   1.58008389  -2.97256752
H   -0.62220384   0.14255550  -3.40969054
O    0.98766791  -1.58628222   0.44035731
H    1.49264752  -1.06149119  -0.18078826
H    1.44646396  -2.42569130   0.47397913
O   -1.69110841  -0.15013102  -0.26015749
H   -2.63543632  -0.26467672  -0.36672174
H   -1.38732472   0.14838633  -1.11738249
O   -1.20290408  -0.99646507   2.87212723
H   -1.25495885  -1.89014313   3.21103972
H   -1.58158475  -0.45478262   3.56452373
O    1.80241844   0.56567807  -1.14161692
H    1.09372782   0.66423634  -1.77744372
H    2.59286072   0.80865270  -1.62369179
Li  -0.39274522  -0.40238131   1.19188077
