19
Energy:   -509.73351649
O   -2.13159580  -0.99584975   1.15364802
H   -2.71852120  -0.49054725   1.71616009
H   -2.47357780  -1.88909999   1.19085239
O    0.26812792   2.14293669  -0.99905085
H   -0.01095844   3.05702602  -0.94629336
H   -0.54140634   1.65275191  -1.14259528
O    2.56511521   0.58378676   0.80503655
H    3.31680709   0.71915173   1.38198325
H    1.93830348   0.09488408   1.33824669
O   -1.53267742   0.04261545  -1.34909246
H   -1.80114288  -0.32621028  -0.50759039
H   -2.31590254  -0.01339579  -1.89649816
O    1.12096323  -0.61081621  -1.92512402
H    1.36730091  -1.39649916  -2.41323455
H    0.16413032  -0.62987988  -1.90670657
O    0.53800757  -0.78483542   1.97719018
H   -0.38262112  -0.86940688   1.72915323
H    0.61806092  -1.29806994   2.78118871
Li   1.75911277   0.90820248  -0.90583477
