19
Energy:   -513.35642389
O   -0.37806862   1.06772267  -0.74939180
H    0.06722702   0.39869230  -1.26933604
H   -0.66613163   1.71755929  -1.39045647
O    1.84267156  -0.32847336   0.91624093
H    2.67493521  -0.64690814   1.26576684
H    1.65497454  -0.90804431   0.17793259
O   -2.12632346  -1.72785199  -2.18817666
H   -2.45128354  -2.58807464  -2.45397695
H   -2.78792320  -1.11296196  -2.50508026
O    0.75684465  -1.39036066  -1.66579285
H    1.30339093  -1.52825818  -2.43942278
H   -0.09042083  -1.76927002  -1.89988847
O   -1.17362509   0.01724514   2.05407394
H   -1.76686692   0.35312612   2.72599652
H   -1.55547414  -0.82112198   1.79414368
O    1.23992255   2.54433665   1.91364821
H    2.03108758   2.30557028   2.39663927
H    1.04540399   3.43734601   2.19812786
Li   0.32883051   0.99265729   1.08935132
