19
Energy:   -542.11961405
O    0.67524022  -0.05069391   3.57299203
H    0.68452447   0.59186296   4.28240469
H    0.82303180  -0.89048495   4.00789490
O   -0.44797768   1.63191420  -1.19945109
H   -0.49796769   2.57722480  -1.05760358
H   -0.51336103   1.52789447  -2.14873332
O    1.54966286   0.21988549   0.95972112
H    2.48299988   0.12333197   0.77053529
H    1.48736492   0.13303775   1.91093524
O   -0.20520228  -1.36003222  -1.20774843
H   -0.19813645  -2.31664377  -1.17494168
H   -0.20765431  -1.15195734  -2.14205603
O   -1.36252430   0.02484511   1.62371432
H   -0.90966654   0.02157996   2.46700611
H   -2.29232641   0.03852510   1.85067848
O   -0.27708353  -0.37952491  -3.78948464
H    0.46080464  -0.49434920  -4.38829036
H   -1.05021170  -0.40780955  -4.35313760
Li  -0.18549894   0.12883901   0.04235369
