19
Energy:   -509.29039682
O   -0.60811444  -0.83819183   0.89845908
H   -1.08622511  -1.66282021   0.81110887
H    0.24242639  -1.09080268   1.25762464
O   -1.99530163   1.95365617   1.15019028
H   -2.74309086   1.67597991   1.67928292
H   -1.76944946   2.81965016   1.48971503
O   -1.18855679   0.86720871  -1.80098070
H   -0.75342473   0.42829650  -2.53190341
H   -1.96168099   1.27457540  -2.19157410
O    0.67199642  -1.67187318  -2.71489973
H    1.47816035  -1.78631400  -3.21812419
H    0.36409311  -2.56289402  -2.54904060
O    1.67704494  -1.69892087   1.98452448
H    1.55412063  -2.06982321   2.85833963
H    2.46086965  -2.13294963   1.64767185
O    1.10346850   1.72810169   0.35033721
H    1.56937422   2.47968771  -0.01610810
H    1.75114647   1.29024328   0.90262799
Li  -0.65592669   0.91542665   0.07335535
