19
Energy:   -540.12243639
O   -0.21864908   0.28661171   3.66802051
H   -0.67097436   0.87824111   4.26935930
H    0.31107799  -0.27341822   4.23545999
O   -0.77731809   0.82313881  -1.50203795
H   -1.40195963   1.53495398  -1.64122836
H   -0.55226863   0.52554036  -2.38352518
O    0.95785019   1.09551024   1.25607837
H    1.55491429   1.84340569   1.27604567
H    0.68725054   0.98006897   2.16694664
O    1.23968430  -1.36596229  -0.86280603
H    1.59043996  -1.16282789  -1.72995004
H    1.57349916  -2.24166380  -0.66800781
O   -1.25263923  -0.86451425   1.34377590
H   -1.07097976  -0.57440232   2.23768124
H   -2.09242838  -1.31972187   1.40519298
O    0.04552795  -0.01292161  -3.96459560
H    0.64239301   0.44005122  -4.56024613
H   -0.56296530  -0.47571131  -4.54061080
Li   0.00064571  -0.10778514   0.03165815
