19
Energy:   -509.82676700
O    0.83046459   1.98902332  -0.82321337
H    0.54339760   1.80436641  -1.71748750
H    1.49828404   2.66778137  -0.92086859
O   -3.19650079  -1.81543410   0.94291962
H   -3.75656346  -1.98343069   1.70077106
H   -3.33510540  -2.56973657   0.37016454
O    2.16448143   0.94682448   1.80872219
H    2.31879148   1.67464565   2.41096517
H    2.99762690   0.47628052   1.78247595
O   -1.16125062   0.65705995   1.26680144
H   -1.75339944  -0.09104841   1.34377880
H   -1.72216320   1.42156917   1.39770056
O    0.95808016  -1.23980484  -0.09651982
H    0.36590873  -1.96244020   0.11171799
H    0.89317512  -1.14249538  -1.04654616
O    0.64481633  -0.43456340  -2.71241068
H   -0.23789510  -0.37440768  -3.07769641
H    1.20582736  -0.60938073  -3.46801467
Li   0.68912489   0.59659346   0.58182490
