12
Energy:    -98.36641828
O    0.93705634   1.55254743   0.72868965
H    1.59931612   2.13499292   1.10071263
H    1.31776395   0.67750418   0.80347508
O   -1.64593880   0.93630040   0.21394825
H   -2.06038828   1.00427621   1.07408938
H   -0.73724929   1.19699878   0.36412006
O   -1.11339071  -1.37498321  -1.33713487
H   -1.14613415  -1.22329882  -2.28167262
H   -1.44395196  -0.56335918  -0.95213156
O    1.50567546  -1.13045033   0.33791575
H    0.91271397  -1.28282930  -0.39788937
H    2.04740911  -1.91864225   0.37677446
