12
Energy:    -98.87757746
O   -0.52535619  -1.09911318  -1.09599653
H   -0.88212304  -1.98017761  -1.20857860
H   -1.03737410  -0.72251111  -0.38028681
O    0.87847195   1.40079397  -1.16240741
H    0.23264919   0.69929831  -1.24636368
H    0.87835937   1.83071733  -2.01762535
O    1.29066138  -0.23636424   1.11718119
H    1.06054886  -0.95734338   0.53111878
H    1.48238669   0.49659849   0.53216932
O   -1.36320133   0.12691653   1.27662311
H   -0.41894655   0.11370133   1.43295651
H   -1.74928783   0.22251250   2.14727256
