12
Energy:   -103.79270273
O    0.44463978   2.08125681  -0.56190944
H   -0.39456711   1.62252284  -0.52283532
H    0.50785123   2.53783516   0.27700198
O   -1.69134947   0.38412787  -0.41939132
H   -1.57072388  -0.35330698   0.17883201
H   -1.99695027  -0.01511270  -1.23391386
O   -0.51197867  -1.53442398   1.16705512
H    0.28081336  -1.30458647   0.68240332
H   -0.20659516  -2.11181422   1.86676454
O    1.66018952  -0.70465827  -0.17142920
H    1.32609288   0.17672280  -0.33809860
H    2.20636420  -0.90213787  -0.93230164
