12
Energy:   -101.37896519
O   -0.84858801  -0.86116610  -1.38281412
H   -0.90936596   0.05490249  -1.11197060
H   -1.75809787  -1.14607726  -1.47141042
O    0.65265505   0.63431741   1.71660455
H    0.86535273  -0.04419930   1.07581861
H    1.32713750   0.54807239   2.39030112
O   -0.94951689   1.69229468  -0.57810365
H   -0.68509655   1.67598683   0.34170491
H   -0.81205240   2.59932752  -0.85128268
O    1.06056375  -1.67311221   0.33163805
H    1.77841475  -1.89508364  -0.26136319
H    0.32494692  -1.47186430  -0.24680730
