12
Energy:    -98.20719038
O   -1.63234994   0.38456456   0.16155343
H   -2.45022405   0.47809935   0.64998462
H   -0.96569011   0.24546069   0.83419496
O    0.97392965   0.18996290   1.30004114
H    1.08588612   0.61848968   0.45147623
H    1.75801007   0.42839730   1.79461044
O    0.12407402  -1.79171517  -0.55049233
H    0.57345264  -1.39096643   0.19361194
H   -0.72261695  -1.34676999  -0.58750616
O    0.64785938   1.05669886  -1.32002934
H    0.81440755   0.17729890  -1.65936585
H   -0.26872351   1.03811610  -1.04477977
