12
Energy:    -96.98999655
O    0.44525265   1.76102529  -0.44080265
H    0.50367313   1.56598533  -1.37609849
H   -0.42263067   1.44916951  -0.18437262
O   -1.50950853   0.05180392   0.62472900
H   -2.19896917  -0.21136932   1.23433192
H   -0.70750520  -0.31543672   0.99642352
O    1.27069389  -0.45527779   0.87184140
H    2.14525696  -0.42713690   1.25988699
H    1.16987608   0.39571362   0.44536603
O   -0.24176032  -1.40747269  -1.43671772
H   -0.93558869  -0.95815592  -0.95407035
H    0.50049804  -1.42158826  -0.83249498
