12
Energy:    -99.39843060
O   -1.03253412   1.64473515   0.68423464
H   -0.89451561   2.15958809  -0.11081831
H   -1.21438207   0.75962114   0.36842400
O   -1.48320891  -0.83599931  -0.14445158
H   -0.73417783  -1.07247439  -0.69150168
H   -2.24789853  -1.07491027  -0.66828666
O    1.50652575   0.48385439   1.15626687
H    1.57389976   0.08749795   2.02494066
H    0.67985035   0.96598833   1.17592623
O    0.93147375  -1.12107387  -1.44130580
H    1.22523428  -0.55961157  -0.72388215
H    1.73218593  -1.53087409  -1.76865215
