12
Energy:    -97.96955271
O    1.20047863   0.01184257   1.02652833
H    0.29064628  -0.12224310   1.29196754
H    1.70921025  -0.52627949   1.63303359
O   -0.12781402  -1.13070377  -1.23585503
H   -0.27592841  -0.22528877  -1.50883425
H    0.53066194  -1.06809437  -0.54395813
O   -1.46584369  -0.70088747   1.18900148
H   -1.24882590  -1.07273787   0.33409657
H   -2.38995154  -0.46140858   1.11895579
O    0.24213557   1.70651538  -1.13304306
H    0.82255918   2.23569769  -1.68013205
H    0.79515074   1.41542010  -0.40801230
