12
Energy:    -97.00651665
O    0.09232721  -1.60848310   0.85032282
H   -0.53546424  -1.50669280   0.13495684
H    0.90557736  -1.87269611   0.42015132
O   -1.22771588  -0.00281389  -1.12499508
H   -1.03843548   0.57044634  -0.38217782
H   -1.75539197   0.53531876  -1.71508241
O    1.58252910   0.40427476  -1.02966294
H    1.34141435   0.83708114  -0.21065490
H    0.74704107   0.15204041  -1.42281612
O   -0.10310255   1.06143995   1.18266531
H    0.01001226   0.11691291   1.28899291
H   -0.20665702   1.39266848   2.07473929
