12
Energy:    -99.40557552
O    1.52594404  -0.92167794   0.47747011
H    0.59635817  -0.97918711   0.69836523
H    1.97954040  -1.18981086   1.27658645
O   -1.39223194   1.36121447   0.10220236
H   -2.10621118   1.99369047   0.02195525
H   -0.74018521   1.65326405  -0.53480153
O   -1.08955199  -1.11264122   1.13205385
H   -1.26673273  -0.25870325   0.73755574
H   -1.65510227  -1.71958496   0.65455618
O    1.07955524   0.65712503  -1.60850591
H    1.76631809   0.36551168  -2.20813103
H    1.23474322   0.15952552  -0.80567139
