12
Energy:    -96.79586375
O    0.25366423  -2.18837838  -0.08358668
H   -0.63551570  -1.83842862  -0.13949800
H    0.51973493  -2.02420611   0.82111531
O   -0.07338629   2.05135286  -0.02758135
H    0.58518623   1.48026407  -0.42301993
H   -0.36961271   2.60972306  -0.74640293
O    1.47130539   0.00479186  -1.01042356
H    1.09462672  -0.85462488  -0.82135242
H    2.37558880  -0.18005970  -1.26406357
O   -1.58845850  -0.01332406   1.24387885
H   -2.47030855   0.25188921   1.50509574
H   -1.19729456   0.78048412   0.87906218
