12
Energy:    -97.23987381
O   -1.65949295  -0.33482017  -0.93277559
H   -1.89729342  -0.03653193  -1.81067473
H   -0.84354500  -0.81965303  -1.05686386
O   -0.84371602   0.68110877   1.56015001
H   -1.08993009   0.23534264   0.74965446
H   -1.62944877   1.16380030   1.81679137
O    0.81423934  -1.50579292  -0.93444946
H    1.48631130  -0.82759452  -0.86664053
H    0.98220760  -2.08525925  -0.19132277
O    1.63825713   1.19428880   0.19250936
H    0.79375035   1.09006889   0.63089088
H    2.27635266   1.22604795   0.90529074
