12
Energy:    -97.96457176
O    1.10790944   1.11082328   0.86873104
H    0.40825223   0.63877303   1.32026200
H    1.21320208   1.92000930   1.36909420
O    1.12721704   0.62657609  -1.84557829
H    1.00547634   0.66450794  -0.89690963
H    2.00661587   0.97637640  -1.98885877
O   -0.84157706  -0.59340348   1.88628899
H   -0.76304432  -1.45665420   2.29232181
H   -1.23930974  -0.76496729   1.03270453
O   -1.34260307  -1.15152778  -0.96235737
H   -0.61133145  -0.84419811  -1.49810185
H   -2.09862717  -1.12220230  -1.54870149
