12
Energy:    -97.43189071
O    1.29147219  -1.29916770  -0.74898271
H    1.61028609  -1.99623406  -1.32229592
H    0.50585989  -0.96986082  -1.18556276
O   -0.97253879   0.22294189  -1.43183844
H   -0.37165579   0.87983922  -1.08018896
H   -1.50972106  -0.03616561  -0.68315269
O    1.00329968   1.05178602   0.74772147
H    1.18170538   0.15109347   0.47724750
H    1.85085013   1.49261845   0.68808212
O   -1.64300332  -0.04834186   1.27597271
H   -0.72156882   0.20670272   1.32226061
H   -2.04982535   0.38453151   2.02653804
