12
Energy:    -97.37815533
O    1.47243779   1.20881035   0.31120060
H    2.19641826   1.05263888   0.91757886
H    0.68990906   1.19140540   0.86217946
O   -0.92728130   0.78187913   1.60421343
H   -1.61794393   1.41184029   1.39838359
H   -1.25459360  -0.05189881   1.26670365
O    0.28461195  -0.19002750  -1.81578059
H    0.76103159   0.33649967  -1.17388861
H    0.70166700   0.01614550  -2.65231489
O   -0.77020186  -1.94912064   0.10890278
H   -1.31943399  -2.39488249  -0.53597882
H   -0.24914798  -1.33222227  -0.40507302
