12
Energy:   -105.66540903
O   -0.18038409   0.76261474  -1.64260059
H    0.24716691  -0.07816552  -1.47974929
H   -0.79627378   0.58495132  -2.35347854
O   -0.60561159   1.71405217   0.85433568
H   -0.54764025   1.30641678  -0.00978500
H   -0.51565646   2.65165278   0.68390971
O    0.92925999  -1.63473522  -0.95923780
H    1.87117684  -1.80496540  -0.95244278
H    0.66546274  -1.70832394  -0.04205322
O   -0.11294043  -0.85732641   1.80759894
H   -0.31445816   0.01539732   1.46999600
H   -0.65666041  -0.94316217   2.59069067
