30
Energy:   -139.53540064
O    1.12026307   1.26620928   0.89174934
H    0.29477506   0.77614884   1.02149367
C    1.53224702   1.75805613   2.15701203
H    2.46321545   2.30736968   1.99258091
H    1.73412406   0.95312649   2.88096733
H    0.80123816   2.45081920   2.60252600
O   -1.78746626   0.79979680  -1.41844019
H   -1.71987819   0.50996396  -0.49656599
C   -1.41712489   2.16835894  -1.46762068
H   -1.49885077   2.47856295  -2.51288598
H   -0.37964889   2.34016082  -1.14065739
H   -2.08124641   2.81041980  -0.86805600
O    0.24776134  -2.44029948   0.07378500
H    0.27364194  -2.14826242  -0.84950684
C    1.57638055  -2.41553034   0.57046522
H    1.52892798  -2.74720534   1.61124624
H    2.01800092  -1.40683905   0.55341583
H    2.24706288  -3.09775498   0.02500019
O   -1.22890387  -0.33000162   1.14246196
H   -0.78304391  -1.15280291   0.89220166
C   -2.48374507  -0.67497738   1.70717345
H   -2.97252176   0.26324875   1.98342386
H   -2.38662527  -1.28972372   2.61570634
H   -3.13823152  -1.20480032   0.99744642
O    0.16832607  -1.03107887  -2.37512153
H   -0.56438602  -0.40823252  -2.25842239
C    1.35492866  -0.27259289  -2.54602237
H    2.17008950  -0.98958520  -2.67609942
H    1.58832009   0.35468235  -1.67147590
H    1.32237011   0.37276304  -3.43778075
