30
Energy:   -125.79412210
O    0.84341537  -0.27727093   0.91098511
H    0.65019734  -0.12227496  -0.02553308
C    1.80595875   0.68272771   1.31650528
H    2.01207399   0.49380289   2.37353372
H    1.44165170   1.71743547   1.21935824
H    2.75382078   0.59464099   0.76281255
O    1.82939149   2.30445030  -1.65740421
H    1.21633151   1.56360093  -1.77454911
C    1.06441884   3.49914626  -1.65018073
H    1.77039610   4.32342927  -1.51736947
H    0.33877877   3.53445936  -0.82254746
H    0.52239185   3.66274346  -2.59475472
O   -1.05933528  -1.18746608   2.78295205
H   -0.38571024  -0.84683763   2.17580723
C   -0.39963411  -1.98087533   3.75651761
H   -1.17289366  -2.35654142   4.43211354
H    0.32533467  -1.40579281   4.35357515
H    0.12059237  -2.84679306   3.31796520
O   -2.63719194  -0.70577696  -1.46773736
H   -3.54931805  -0.40937407  -1.60409923
C   -2.57825966  -1.35041733  -0.20539844
H   -1.54418706  -1.67793170  -0.06787246
H   -3.22767553  -2.23812460  -0.15051522
H   -2.83718484  -0.67841259   0.62775504
O    0.04323716   0.09965449  -1.79852520
H   -0.88910553  -0.16041411  -1.75947764
C    0.72808389  -0.86903555  -2.57644443
H    1.77657189  -0.56077969  -2.61015545
H    0.35513562  -0.92453310  -3.61114581
H    0.68271382  -1.87743920  -2.13617069
