30
Energy:   -126.60212680
O    0.91063702   2.17272960   0.99463379
H    0.36482035   2.28797462   0.20265777
C    2.26246662   2.38481345   0.62031982
H    2.86333113   2.25117189   1.52397183
H    2.44320937   3.40142817   0.23743093
H    2.61349012   1.66226879  -0.13299887
O   -1.77796255  -1.83711036   0.38662288
H   -1.03817278  -1.42221673   0.85459472
C   -2.56636497  -2.52049632   1.34784035
H   -3.39497745  -2.98191974   0.80380452
H   -2.99059051  -1.84538179   2.10746552
H   -2.01031633  -3.31870738   1.86402477
O    1.29172034   0.18797746  -2.02275142
H    0.60090094   0.81262307  -1.75627498
C    0.66377363  -1.05100658  -2.31108326
H    1.45610913  -1.74284479  -2.60949499
H   -0.05721831  -0.97948598  -3.14044009
H    0.14747576  -1.47946395  -1.43779172
O    0.35957864  -0.52348911   1.67358470
H    0.58380795   0.41571838   1.59590734
C    1.54419264  -1.26929726   1.44338123
H    1.27365932  -2.32474391   1.53464618
H    2.33251334  -1.05387932   2.18157017
H    1.95854948  -1.10898917   0.43571707
O   -0.71772946   2.16470954  -1.37100048
H   -1.05948207   2.71967241  -2.08769053
C   -1.80365914   1.41245414  -0.85389088
H   -1.40113047   0.79304939  -0.04779310
H   -2.25432837   0.74485037  -1.60487676
H   -2.59830338   2.04759111  -0.43208654
