30
Energy:   -125.73639726
O   -0.12696840   1.96429855  -1.78413877
H   -0.52816339   1.25981071  -2.31438657
C    1.22035089   1.59887527  -1.53169011
H    1.65719274   2.40314439  -0.93352159
H    1.81368195   1.49846862  -2.45399921
H    1.30675557   0.66207785  -0.95921988
O    2.22550316  -0.26150515   1.35011606
H    1.41720947  -0.77034511   1.18835549
C    3.28281022  -0.89966892   0.65198815
H    4.18548436  -0.31366353   0.84502255
H    3.11891265  -0.92553504  -0.43670182
H    3.46268073  -1.92861005   1.00084928
O   -1.35176762   1.20090145   0.65366791
H   -1.03046557   1.63633276  -0.14981690
C   -0.69941987   1.80341395   1.75999286
H   -1.07284265   1.30118153   2.65654360
H   -0.92331556   2.87772397   1.85222097
H    0.39421178   1.67781476   1.72881627
O   -1.32050656  -0.55079376  -2.33699360
H   -0.96378093  -1.35557000  -1.93263570
C   -2.68157813  -0.44250806  -1.95190638
H   -3.06777897   0.46909617  -2.41592346
H   -2.80913505  -0.35116255  -0.86187768
H   -3.29162077  -1.28931534  -2.30339286
O   -0.26912730  -1.38122030   0.56585969
H   -0.73951295  -0.53484642   0.59435269
C   -0.72148333  -2.16211811   1.66044016
H   -0.18163698  -3.11176037   1.61321004
H   -1.79990167  -2.37964533   1.61070974
H   -0.50578782  -1.69487196   2.63405909
