30
Energy:   -125.55284229
O    0.93088708   3.28087619   1.05616876
H    1.69763118   3.69069954   1.48345271
C    0.32828317   2.40834296   1.99855300
H   -0.53344065   1.95524738   1.50093703
H   -0.03350397   2.93534972   2.89529782
H    1.00191118   1.59843485   2.31956937
O   -0.26940044  -0.89129564   2.10413853
H   -0.37943805  -0.80912460   1.14520009
C   -0.04550814  -2.26144423   2.39585561
H    0.07628943  -2.33601886   3.47987091
H    0.86803776  -2.65335843   1.92192050
H   -0.89157537  -2.90244705   2.10249074
O    0.33176707  -3.23982488  -0.85701997
H   -0.01698412  -2.33606217  -0.85999323
C    1.69787539  -3.17526233  -1.23399942
H    2.07496005  -4.20152741  -1.22549347
H    2.30516150  -2.58260120  -0.53204949
H    1.84066483  -2.76748676  -2.24696911
O   -0.63273573  -0.56849307  -0.71561821
H   -0.39951714   0.31929311  -1.02524389
C   -2.03415601  -0.72433882  -0.87139711
H   -2.27967957  -1.72947648  -0.51798280
H   -2.35694886  -0.64324569  -1.92116185
H   -2.61143004  -0.00176939  -0.27354641
O   -0.00293524   2.08860505  -1.33173565
H    0.32692113   2.54473390  -0.54334202
C   -0.20135587   3.06441974  -2.34215572
H   -0.57290098   2.53362192  -3.22289014
H    0.72964099   3.58144652  -2.62270071
H   -0.94852057   3.82270618  -2.06015586
