30
Energy:   -130.10007363
O    0.08352282  -1.28318002   1.46381314
H    0.35792598  -1.88207302   0.75356434
C   -1.33474884  -1.25469787   1.47891466
H   -1.62676993  -0.57559697   2.28453917
H   -1.77769957  -2.24130667   1.68670075
H   -1.76244150  -0.87283776   0.53868108
O    0.59146025   1.47737425   1.37037560
H    0.46981044   0.52834624   1.52193564
C    1.98411719   1.71882492   1.24895890
H    2.10317698   2.79228047   1.07865584
H    2.43543538   1.18595349   0.39740898
H    2.54270168   1.45373303   2.16026949
O   -1.85749135   2.11774933   0.12586424
H   -0.99237614   1.99339568   0.54363823
C   -2.63789644   2.93213475   0.98625837
H   -3.60880885   3.06213539   0.50054844
H   -2.19797523   3.92957691   1.14232176
H   -2.80804377   2.46945061   1.97101753
O    0.16781114  -0.84018420  -2.90409193
H   -0.24908912  -0.72491977  -3.77088577
C   -0.17258591   0.28482863  -2.10973071
H    0.30505296   0.13873553  -1.13710379
H   -1.25775123   0.37757139  -1.94665911
H    0.19738616   1.23182066  -2.53293762
O    0.82673389  -2.68378335  -0.86044151
H    0.60963678  -2.11283484  -1.61231245
C    2.13489962  -3.19142743  -1.06908876
H    2.36340181  -3.83229946  -0.21319449
H    2.89688677  -2.39763054  -1.11424843
H    2.21371803  -3.80113939  -1.98277160
