30
Energy:   -129.08095898
O   -1.93782148  -1.32303232   0.77583098
H   -1.08592658  -1.76831178   0.65572874
C   -2.93591069  -2.32534418   0.88410212
H   -3.88885991  -1.80649504   1.01889294
H   -2.78186342  -2.98698355   1.75086629
H   -3.01184295  -2.94928298  -0.02017217
O    1.23310126   1.79468530  -1.52980219
H    0.43965601   1.63643027  -0.99705154
C    0.81133083   2.10785106  -2.84759227
H    1.71729591   2.28313942  -3.43409586
H    0.19462914   3.01918827  -2.89141979
H    0.25152372   1.28634574  -3.32143016
O    0.64788177  -2.31549232   0.35591201
H    1.30219099  -1.85224645   0.89970055
C    0.92616465  -2.01440924  -1.00219012
H    0.18001333  -2.54409538  -1.60066818
H    1.92365304  -2.35787801  -1.31813861
H    0.84208914  -0.93925833  -1.22525777
O   -1.04891440   1.23231358   0.00618941
H   -1.44353802   0.38690732   0.26692632
C   -1.61471661   2.24245849   0.82595090
H   -1.15928336   3.18788171   0.51896443
H   -1.40034888   2.09170234   1.89557531
H   -2.70501986   2.33175038   0.69928952
O    2.30920784  -0.74262671   2.03449254
H    2.17728348  -0.51943414   2.96787580
C    2.47781701   0.47197890   1.32116378
H    2.62519941   0.20221350   0.27188295
H    3.35934671   1.04186684   1.65419599
H    1.59566195   1.12817733   1.38427808
