30
Energy:   -139.93194191
O    2.26813842   0.96108640   1.37054317
H    1.65696664   1.42972182   0.78294369
C    3.46736397   1.71622148   1.43506340
H    4.14445643   1.17423857   2.10086031
H    3.31339354   2.72404476   1.85143185
H    3.95992695   1.81658369   0.45522338
O   -2.69090410  -0.45980124  -0.10476287
H   -1.91119466  -0.54078951  -0.67390025
C   -3.66728165  -1.37277118  -0.57984870
H   -4.53862669  -1.26845390   0.07234830
H   -3.32904429  -2.41974770  -0.53280647
H   -3.98536598  -1.15639847  -1.61173171
O    1.16092452  -1.56879430   0.77230660
H    1.68291514  -0.82051524   1.09792525
C    0.11437855  -1.80036697   1.70163399
H   -0.46360997  -2.64619240   1.31954264
H   -0.56506055  -0.93930625   1.80019506
H    0.48641052  -2.06590596   2.70356143
O    0.35006872   1.89375187  -0.46600143
H    0.07470828   1.11057786  -0.96523922
C   -0.77696266   2.36094159   0.25792384
H   -0.44920125   3.24315001   0.81449005
H   -1.15397547   1.62137536   0.98158154
H   -1.60921337   2.66083723  -0.39797150
O   -0.22902475  -0.71687396  -1.49791874
H    0.27389668  -1.15182888  -0.79342777
C    0.47369055  -0.91563427  -2.71415035
H   -0.10647869  -0.41943942  -3.49688883
H    0.56803063  -1.97971340  -2.98175621
H    1.48067456  -0.46999759  -2.70117045
