30
Energy:   -126.13476671
O    0.63404628   0.24393714  -2.70436522
H   -0.25226732   0.17303991  -2.31985896
C    1.43174313   1.00314505  -1.81004042
H    2.42647126   1.07324665  -2.25846759
H    1.53515798   0.52617632  -0.82283045
H    1.05044855   2.02586052  -1.66359985
O    0.13013603   2.11013589   1.26878196
H   -0.02127531   1.15420535   1.30994851
C    1.25465877   2.40324565   2.08245822
H    1.41113587   3.48382931   2.02467353
H    2.17325695   1.90613667   1.73340609
H    1.09575328   2.13734627   3.13925711
O    1.23299797  -2.78003189   0.17171752
H    2.09424578  -3.22149994   0.21392449
C    0.80286647  -2.80389983  -1.17992999
H   -0.16842705  -2.30269650  -1.20941430
H    0.67108940  -3.82672415  -1.56624923
H    1.48645163  -2.26350259  -1.85332398
O   -0.32349521  -0.67987934   1.21252365
H    0.21965490  -1.42087561   0.90538237
C   -1.28761439  -1.19797614   2.11506655
H   -1.89073216  -0.35020685   2.45125310
H   -0.83187464  -1.66568319   3.00181834
H   -1.96125003  -1.93045435   1.64340140
O   -1.76231998   0.01953459  -1.15104495
H   -1.37581599  -0.16574370  -0.28230454
C   -2.32289864   1.32186262  -1.10385344
H   -2.75378392   1.51434346  -2.09014661
H   -1.57153889   2.10116846  -0.90157080
H   -3.12682072   1.41196022  -0.35661249
