30
Energy:   -128.60210891
O   -0.14436172   1.89648887  -1.29257916
H    0.79697164   1.75510579  -1.11278590
C   -0.75586584   2.31334540  -0.08227874
H   -1.81555298   2.46807954  -0.30274578
H   -0.34420964   3.26151501   0.29757768
H   -0.67987256   1.55739050   0.71492546
O    0.08292112   0.21501964   2.94380165
H   -0.12925486  -0.42721929   2.25030775
C    1.43898681   0.59671169   2.77667655
H    1.66125346   1.32018283   3.56577240
H    1.62777918   1.08146962   1.80603526
H    2.13528320  -0.24976047   2.88360440
O    2.57554840   1.21004591  -0.82653562
H    3.47517018   1.43555833  -1.10626418
C    2.46245004  -0.20401568  -0.83966400
H    1.44330200  -0.44062391  -0.52211238
H    3.15975621  -0.69288593  -0.14141812
H    2.61613188  -0.63361807  -1.84196186
O   -0.59135162  -1.56432492   0.83820708
H   -0.84367723  -1.35910580  -0.07428411
C   -1.64603074  -2.31543824   1.41787467
H   -1.34538913  -2.53804822   2.44527168
H   -1.82269933  -3.27075034   0.89927624
H   -2.59537637  -1.75840877   1.45306528
O   -1.24476475  -0.64667115  -1.73919539
H   -0.94160482   0.27133351  -1.67767488
C   -1.98811634  -0.77487580  -2.94066356
H   -2.32195314  -1.81467490  -2.99410521
H   -1.38583105  -0.56315387  -3.83799493
H   -2.87964200  -0.12867126  -2.96013227
