30
Energy:   -126.60355919
O   -1.00454492   3.31490347   0.13818358
H   -1.55244464   4.10051483   0.28324896
C   -0.29863047   3.50107918  -1.07818691
H    0.31339153   2.60720985  -1.22621354
H    0.37257926   4.37372908  -1.05103956
H   -0.96781629   3.60429882  -1.94669908
O    0.83022739   1.53791742   1.38937164
H    0.17319820   2.17679363   1.07540810
C    0.16015037   0.60568790   2.22272551
H    0.91472196  -0.10647243   2.56759442
H   -0.62149026   0.04300479   1.68868154
H   -0.29447608   1.07690174   3.10819129
O   -0.68340255  -1.06573614  -1.39112453
H    0.18768245  -0.64206837  -1.37929955
C   -1.66163775  -0.03835494  -1.39992988
H   -2.63662986  -0.53302531  -1.41322632
H   -1.59357999   0.60599901  -2.29040923
H   -1.61524140   0.60068245  -0.50424248
O    1.80760580   0.15320812  -0.84746922
H    1.61264952   0.65225369  -0.04039497
C    2.58338044  -0.97579331  -0.47860170
H    2.79401070  -1.52662634  -1.39930962
H    2.05092958  -1.65129540   0.20912670
H    3.54501815  -0.69910538  -0.01873866
O   -0.54293778  -2.59412883   0.97909740
H   -0.66445951  -2.10392098   0.15244632
C   -0.76090908  -3.96802144   0.70081449
H   -0.62006596  -4.50549322   1.64250048
H   -0.04595390  -4.37190387  -0.03300796
H   -1.78132487  -4.17223803   0.34050277
