30
Energy:   -126.90807649
O    0.32324300  -0.05438079   2.00394622
H   -0.13610799  -0.74147115   1.49864753
C   -0.65191459   0.87057570   2.45788118
H   -0.11746996   1.63753761   3.02499984
H   -1.39704299   0.40975571   3.12511873
H   -1.18494153   1.36636626   1.63153299
O   -0.03770579  -2.18927807   0.02752129
H    0.90933079  -1.98921612  -0.01146875
C   -0.17822972  -3.51227672   0.51992495
H   -1.25079996  -3.72124930   0.55745800
H    0.22891676  -3.63334263   1.53597226
H    0.29293184  -4.26199475  -0.13483225
O   -1.13405709   0.08418115  -1.23640001
H   -0.84714071  -0.77340576  -0.88905730
C   -2.34278463  -0.12286920  -1.94959121
H   -2.65185583   0.85294596  -2.33396729
H   -3.15219061  -0.51027484  -1.31118995
H   -2.21975306  -0.80385775  -2.80626801
O   -1.03224666   2.84693699  -0.63197929
H   -1.07776861   1.90995986  -0.87369168
C    0.33555642   3.18054802  -0.45776046
H    0.36858187   4.23907621  -0.18589174
H    0.92661185   3.04561257  -1.37712069
H    0.81393329   2.60542990   0.35043014
O    2.46724355  -0.92448080   0.32732579
H    2.03640238  -0.44794554   1.05238669
C    2.63447802  -0.01341107  -0.74715938
H    3.12102250  -0.56647998  -1.55516585
H    3.27667483   0.84155011  -0.48371686
H    1.67708263   0.37545842  -1.12788489
