30
Energy:   -126.05892141
O   -1.34288277   2.26712733  -0.95187536
H   -1.10901284   1.39975124  -1.31434860
C   -1.31730803   3.20091490  -2.01954595
H   -1.58299908   4.17230414  -1.59375678
H   -2.04674424   2.96349502  -2.80969274
H   -0.32174246   3.29146683  -2.48152741
O    0.52536609  -0.33773441   2.30216897
H    0.70630705   0.58503798   2.06941425
C   -0.87070619  -0.55008203   2.16643230
H   -1.05698970  -1.59414488   2.43235790
H   -1.22682305  -0.39136467   1.13649691
H   -1.46510760   0.08540196   2.84143185
O    1.16352683  -2.47452071   0.32153150
H    0.91338520  -1.81712650   0.98762855
C    1.47840412  -3.67869059   1.00223772
H    1.75792137  -4.40815852   0.23723325
H    0.62354375  -4.08496358   1.56520605
H    2.32814008  -3.56657866   1.69372674
O    0.94622008   2.22173855   0.93727049
H    0.30015582   2.36031406   0.22887718
C    2.21823197   2.05190716   0.33255830
H    2.93392155   1.89699518   1.14451637
H    2.53817146   2.93627648  -0.24042246
H    2.25974504   1.17413945  -0.33120208
O   -0.61497815  -0.50969623  -1.52932525
H    0.14831091  -1.05452234  -1.28647224
C   -1.73102538  -1.37315786  -1.67563445
H   -2.58183868  -0.74325609  -1.94917728
H   -1.98399097  -1.90274338  -0.74379492
H   -1.58920218  -2.12012984  -2.47231280
