7
Energy:   -398.91748856
O    1.28956973  -0.16404775   0.56764320
H    1.79624809   0.55183557   0.95107503
H    1.88129093  -0.56159038  -0.07115077
O   -1.30795204   0.11417734  -0.45860366
H   -1.85672040   0.61086954  -1.06554847
H   -1.91604621  -0.47564045  -0.01299362
H    0.13947616  -0.05456372   0.03388097
