7
Energy:   -396.51529330
O   -1.15746368  -0.52201173  -0.51290862
H   -1.13383407  -1.45640531  -0.71926300
H   -1.63697405  -0.12742549  -1.24133387
O    1.21339531   0.66190637   0.49956921
H    0.83830775   1.28627949   1.12061621
H    1.66860042   0.02249324   1.04744784
H    0.20013892   0.06629595  -0.21076187
