7
Energy:   -408.08597983
O    0.71796988   0.77608610   0.73509988
H    1.25320311   1.56724539   0.79694017
H    0.20755073   0.76774981   1.54481258
O   -0.62084858  -0.84083365  -0.71978107
H   -1.27121473  -0.39821810  -1.26507657
H   -0.85529965  -1.76746101  -0.77102829
H    0.58160873  -0.07807242  -0.37149014
