7
Energy:   -395.47528552
O   -1.29198358   0.08124812   0.43159500
H   -1.59747442   0.41451541   1.27530118
H   -1.59923438   0.72534484  -0.20634560
O    1.23000746  -0.34025764  -0.35060321
H    1.57166375   0.54777014  -0.45505172
H    1.57511634  -0.82025925  -1.10341804
H    0.16440505  -0.52669876   0.41093017
