7
Energy:   -391.43074957
O   -1.04466160   0.56139486  -0.44489349
H   -1.25082576   1.47915421  -0.26756338
H   -1.50381121   0.36577216  -1.26168308
O    0.96519712  -0.70958920   0.59198646
H    1.63283965  -0.02959657   0.50201237
H    1.38963293  -1.50626872   0.27357190
H   -0.16353767  -0.09017727   0.59361346
