7
Energy:   -395.74714364
O   -0.53199306   1.29283842   0.13585352
H   -0.14396386   1.19615063   1.00551820
H   -0.23418835   2.15108170  -0.16574667
O    0.28891621  -1.24317055  -0.28795056
H    1.18255284  -1.18724990   0.05045498
H    0.04496230  -2.16132156  -0.17083073
H   -0.53417148  -0.08510901  -0.54623355
