7
Energy:   -408.84712551
O   -0.46768344  -0.49322308   1.29674792
H   -1.00129956  -1.25863873   1.08314882
H    0.00397395  -0.74361255   2.09115101
O    0.45401052   0.71509935  -1.16621942
H    0.81097819  -0.03098048  -1.64806050
H    0.15713405   1.32001218  -1.84605519
H    0.05679826   0.41757343   0.13311758
