7
Energy:   -402.04420616
O    0.21129059  -1.37989230  -0.56006646
H    0.61541357  -2.20883178  -0.30359851
H   -0.16523881  -1.55327620  -1.42285003
O   -0.07052824   1.37017986   0.70931969
H   -0.87503253   1.55025566   1.19571192
H    0.11785985   2.18653885   0.24639445
H    0.10081121   0.04549218   0.06044737
