7
Energy:   -408.71378398
O   -1.10349681  -0.74241499   0.56487527
H   -2.01963267  -0.46509735   0.56019792
H   -0.80124015  -0.55724368   1.45402337
O    0.98947779   0.57095183  -0.65944427
H    1.50049911   0.57654703  -1.46880065
H    1.51442311   1.07866600  -0.04066274
H   -0.02004363  -0.41485963  -0.40444694
