7
Energy:   -402.11429820
O   -1.44886363  -0.25062209  -0.20840797
H   -1.61293284  -0.37224503   0.72675030
H   -2.00596322   0.48739184  -0.45580912
O    1.37306869   0.05745634  -0.04678438
H    1.44926508   0.54505209   0.77338410
H    2.25677339  -0.27002492  -0.21427728
H    0.03388687  -0.10324454  -0.49125484
