7
Energy:   -429.95373662
O   -0.28435439  -0.32328497   1.32037528
H    0.37028808  -0.72959593   1.88834226
H   -1.09810720  -0.78432548   1.52404130
O    0.32883250   0.48017458  -1.25084236
H    0.73163729  -0.18351424  -1.81075065
H   -0.04336419   1.11596444  -1.86196650
H   -0.03296035   0.38229485   0.17239569
