7
Energy:   -391.58604776
O    1.20487430   0.22746823  -0.67338149
H    1.86833672  -0.43570895  -0.48299902
H    1.62309108   0.81032471  -1.30710453
O   -1.18190287  -0.16768913   0.79855347
H   -1.70656020  -0.50247416   1.52579863
H   -1.80889174   0.29688536   0.24421842
H   -0.01296209  -0.29491775  -0.19563911
