7
Energy:   -395.02094266
O    0.66470558  -0.49209835  -1.20933843
H    0.12952641  -1.04986483  -1.77388396
H    1.22326292  -0.00391752  -1.81425580
O   -0.45081600   0.40781944   1.31250138
H   -1.39061741   0.58917881   1.32317552
H   -0.13897056   0.70689365   2.16663187
H   -0.17358728  -0.12632578  -0.06899361
