7
Energy:   -394.29703379
O    1.04945817   0.55841322  -0.73277182
H    0.55153707   1.20463130  -1.23347994
H    1.30395288  -0.10105831  -1.37818765
O   -0.79344571  -0.45263911   0.90201426
H   -1.16558566  -0.94621381   0.17117385
H   -1.41063643  -0.58685595   1.62124531
H    0.36651500   0.30001005   0.62896737
