37
Energy:  -1027.29663709
O   -2.82835485  -0.70496730  -0.97727417
H   -2.71331266   0.03693931  -1.57105167
H   -3.66132459  -1.09618544  -1.24060215
O    3.00305298  -0.50243731   0.51949531
H    2.53545987  -1.33567936   0.46208264
H    3.90756999  -0.74775303   0.71417716
O   -1.81812205   0.11321421   1.43009814
H   -1.40799288  -0.64764934   1.84133113
H   -2.26275506  -0.24081700   0.65990645
O   -0.26825390  -1.90347554   2.49876386
H   -0.42577813  -2.58428914   3.15291277
H    0.26970902  -2.33088002   1.83231570
O    1.37521082  -2.72576050   0.44801352
H    1.60214194  -3.61999220   0.19289827
H    0.80303948  -2.41403120  -0.25318307
O   -0.57149931   1.87062646  -0.03933729
H   -1.08457955   1.86298233  -0.84737322
H    0.33681907   1.79263135  -0.33106720
O   -0.24592276  -1.63785420  -1.40093550
H    0.01771379  -1.05338973  -2.11165972
H   -1.18371427  -1.47836724  -1.29443273
O   -0.83318071   2.28005751   2.54563608
H   -1.24111124   2.75180947   3.27177286
H    0.00226975   1.97325050   2.89794821
O    0.46797431   0.38252050  -3.16508367
H    0.96320760   0.26315573  -3.97547116
H    1.09465472   0.77341285  -2.55622681
O    1.94443970   1.45404370  -1.09142481
H    2.37620750   0.76747079  -0.58306859
H    2.59425803   2.15449245  -1.14921352
O    1.16542856   0.44759360   2.36053965
H    0.79722159  -0.39739064   2.61872003
H    1.92701628   0.22410617   1.82549820
O   -1.93086730   1.48265848  -2.39563174
H   -1.15618600   1.13988826  -2.84128779
H   -2.31453753   2.09802799  -3.02041120
H   -1.06143393   1.40810588   1.32252631
