37
Energy:  -1026.36258438
O    1.25030934  -0.48126326  -2.34867075
H    0.46547489  -0.57592225  -2.88839883
H    1.96449848  -0.78672781  -2.90800707
O    0.67640070   0.87524781   3.00899010
H    1.42632310   1.27640849   2.56976537
H    0.66512924   1.27557505   3.87838236
O    1.20084904  -1.71673237   2.21749361
H    0.98169302  -0.88817687   2.64375441
H    1.06704129  -2.37846486   2.89604902
O    3.50567596  -0.77155172   1.01718828
H    2.80520629  -1.26947347   1.43867140
H    4.26381070  -1.35535434   1.04244816
O   -3.50840485   0.35628458   0.19186137
H   -4.44784446   0.40917290   0.36761088
H   -3.38651484  -0.50667086  -0.20397012
O   -1.63726720   1.45529538  -1.49125462
H   -1.54824748   0.87462565  -2.24698606
H   -2.47965771   1.21754935  -1.10384411
O   -2.60271338  -1.87391518  -1.18418476
H   -1.76422012  -1.78991817  -0.73019644
H   -2.83520644  -2.79764841  -1.08986749
O    0.84864930   1.69295027  -0.70741822
H    1.19304105   1.04876273  -1.32600418
H    1.54264637   1.79518500  -0.05615178
O   -1.10024572   1.60002375   1.04698398
H   -1.94846955   1.17327258   1.16794518
H   -0.58633155   1.33284600   1.80904705
O   -0.20383727  -1.23030596  -0.10555615
H    0.46588567  -1.16753326  -0.78655734
H    0.27512793  -1.50057266   0.67788503
O   -1.35934242  -0.58240662  -3.31022974
H   -1.87529980  -1.15565136  -2.74329915
H   -1.77042292  -0.66287785  -4.17090915
O    2.66123067   1.77223028   1.33556546
H    3.38182692   2.39758626   1.41239510
H    3.09024770   0.92658986   1.20491889
H   -0.59820458   1.59405722  -0.38991896
