37
Energy:  -1026.45764653
O   -1.04335296   2.05922830  -1.80419061
H   -0.81168483   1.49658897  -2.54310786
H   -0.90223756   2.94930609  -2.12680465
O    3.08774899   0.18506883   0.16159753
H    2.85107012  -0.28682747   0.96005157
H    3.97751698  -0.10773461  -0.03540734
O   -1.96812109  -1.38160520   1.85856285
H   -1.44948509  -0.80946592   2.42416447
H   -2.69257444  -1.67345352   2.41193773
O    2.00305933  -1.25546601   2.25904244
H    1.45898613  -1.84822619   1.74053344
H    2.48478085  -1.83032457   2.85378092
O    0.19680696  -2.59647856   0.67035613
H    0.05027630  -3.49905554   0.38730947
H   -0.63611705  -2.32845745   1.05847226
O    2.01129655   2.72812953   0.14836410
H    2.65785937   3.43111167   0.21164507
H    2.53112538   1.92450324   0.13441332
O   -2.27210541   0.32299396  -0.26671826
H   -2.53997813  -0.16989087  -1.04230874
H   -2.29834301  -0.31657321   0.44496795
O   -0.47424726   1.91264372   0.75262638
H   -0.36342678   1.45123978   1.58392481
H    0.38584745   2.29200166   0.57219224
O   -0.32123026   0.05952108  -3.53617959
H    0.25560244  -0.09195611  -4.28487883
H    0.17411735  -0.26169509  -2.78273234
O    0.69280589  -0.48517066  -1.06332490
H    1.56303270  -0.22560599  -0.76073056
H    0.49830237  -1.28589443  -0.57625030
O   -0.13367997   0.33833048   2.98505527
H    0.67792878  -0.14927711   2.84447809
H   -0.02743548   0.73731123   3.84862826
O   -2.69744136  -0.99836134  -2.57488099
H   -1.95124110  -0.74457500  -3.11802878
H   -3.36898357  -1.26899661  -3.20099557
H   -1.24638872   1.40071457  -0.41945047
