37
Energy:  -1026.63529164
O   -3.08326523  -0.04332651  -1.71580845
H   -3.68146468  -0.15152717  -2.45518784
H   -3.63149673  -0.17504897  -0.94229487
O    3.31863681  -0.96793843   0.59484821
H    2.61603881  -1.58985404   0.40561589
H    4.11174120  -1.50312605   0.62298153
O   -4.30346850  -0.17183203   0.77956864
H   -4.52206339  -1.00468581   1.19766277
H   -5.02208594   0.41312549   1.01966345
O   -0.23202373  -1.36109165   2.22957881
H    0.50179034  -0.92619653   2.66387711
H    0.17799950  -1.93442080   1.58196282
O    1.12984049  -2.55474774   0.12886892
H    1.02889419  -3.47486851  -0.11489214
H    0.57259630  -2.08047763  -0.48820370
O    0.69455809   1.56284851   0.67855286
H    1.43880996   1.59707600   0.07759572
H    1.06165313   1.22705775   1.49630444
O   -0.42792710  -0.96878818  -1.43070323
H   -0.00903684  -0.38907688  -2.06686171
H   -1.36429378  -0.88712746  -1.61175793
O   -1.68868026   0.63002097   1.21623488
H   -1.27342282  -0.11385613   1.65262917
H   -2.61473056   0.39290535   1.16684982
O    0.73508601   1.17237917  -2.78013963
H    0.94142107   1.37945980  -3.69160839
H    1.57898691   1.20525151  -2.32960381
O    2.84047830   1.24130078  -1.00236170
H    3.11483035   0.45080211  -0.53752339
H    3.63001344   1.78078138  -1.04510267
O    1.98574724   0.23942152   2.71514608
H    2.50273115   0.43398926   3.49687677
H    2.60082993  -0.19170608   2.12182144
O   -1.26672618   1.90451110  -1.02268020
H   -2.00056029   1.38702989  -1.35424098
H   -0.61615337   1.87533321  -1.72420392
H   -0.77009084   1.38020773   0.28535070
