37
Energy:  -1024.72470125
O   -2.52324430   1.31600845  -0.97069134
H   -3.47648159   1.38516419  -1.02349292
H   -2.36787303   0.50310671  -0.48977308
O    1.28663305   0.38224696   1.34842462
H    0.68681717   0.17724260   2.06565956
H    1.71632133  -0.44968384   1.14970124
O   -1.57204708  -0.71976712   0.53978933
H   -1.19578588  -1.56432790   0.29204663
H   -1.45151605  -0.67227552   1.48818201
O   -0.19298576  -2.95287876  -0.30119057
H   -0.57627389  -3.81809366  -0.44515319
H   -0.08703927  -2.58811975  -1.17980201
O    2.25472896  -2.06167442   0.55458435
H    2.73422551  -2.71633756   1.06225657
H    1.43724378  -2.49700130   0.31284000
O    0.29823292  -1.67002619  -2.60978955
H   -0.13016011  -0.87055882  -2.91567054
H    1.23241043  -1.46175902  -2.62278993
O   -0.42605610   2.21131753   0.58573687
H   -0.72974009   2.48473461   1.45132972
H   -1.22691965   2.11017659   0.07132465
O   -0.74293302  -0.04621780   3.13931814
H   -0.83164444  -0.50195833   3.97637412
H   -1.01676982   0.85200390   3.32490648
O    1.23023587   1.15979773  -1.14383929
H    0.61869887   1.19233589  -1.87949927
H    1.91487219   0.55395803  -1.42749968
O    2.88824352  -0.88104167  -1.86612232
H    2.87796693  -1.40452933  -1.06481906
H    3.76093423  -1.02155833  -2.23340674
O   -1.26928817   2.69252212   3.19035738
H   -0.70926139   3.25920066   3.72090172
H   -2.15403067   3.02957526   3.33127484
O   -0.72907605   0.90872718  -3.02328817
H   -1.49228333   1.07202028  -2.46913849
H   -0.95111706   1.31206100  -3.86248509
H    0.72260095   1.25264292   0.25655639
