37
Energy:  -1028.37609553
O   -2.95976569  -0.74062646  -0.80765899
H   -3.78246171  -0.99535834  -1.22540864
H   -3.16790685  -0.69715519   0.12562519
O    2.86219477  -0.93978685   0.76723073
H    2.27847269  -1.69291701   0.67615194
H    3.61965020  -1.27947794   1.24378406
O   -2.93941908  -0.33191850   1.92547519
H   -2.26911023  -0.91233636   2.28607609
H   -3.60209046  -0.27383211   2.61375163
O   -0.67157967  -1.71071327   2.71245110
H   -0.54590880  -2.20874125   3.52016814
H   -0.23986549  -2.23477144   2.03775283
O    0.76688932  -2.72474557   0.57950675
H    0.69279991  -3.57229074   0.14086136
H    0.36716933  -2.10365567  -0.02934719
O    1.02596457   2.19882462  -0.06928117
H    0.46642795   2.54841716  -0.76277644
H    1.76807250   1.81042627  -0.53258926
O   -0.25114066  -0.69446414  -0.87943582
H    0.02787001  -0.36059080  -1.73202803
H   -1.20565848  -0.73520495  -0.93832349
O   -1.34518036   1.63022084   0.83619434
H   -1.99658658   1.04287881   1.21951030
H   -1.69160434   1.83942434  -0.03124797
O    0.70723467   0.59507151  -3.11156007
H    0.86928646   0.30671884  -4.00979378
H    1.57721780   0.64815578  -2.71590460
O    2.92346361   0.76559412  -1.42472159
H    3.02136647   0.08940692  -0.75433533
H    3.81765454   1.05506987  -1.60598995
O    0.77072412   0.47127873   1.87494938
H    0.26765305  -0.22276034   2.30093189
H    1.58934846   0.04905454   1.61454052
O   -0.95563101   2.50608929  -1.91058539
H   -0.54046625   1.89098078  -2.51516094
H   -1.35454853   3.16679100  -2.47677433
H    0.15300111   1.41827949   0.88999151
