37
Energy:  -1026.36953162
O   -1.87376324  -0.17131438  -0.35300351
H   -1.92748992   0.55051062  -0.97935322
H   -1.43639595  -0.87409420  -0.83367202
O    0.88687129   0.98641355   0.32737976
H    1.26273948   0.86790178   1.19968126
H    0.67656543   1.91909051   0.28136897
O   -1.87471488   1.58340198   1.60151751
H   -2.39745181   1.95016555   2.31458303
H   -1.47272756   2.34443076   1.18262225
O    2.35591966  -2.29897815   1.92116424
H    2.99228708  -2.98741137   2.11436897
H    1.58821431  -2.76706696   1.59290641
O   -0.08882484  -3.23767425   0.98276342
H   -0.16440637  -3.02701374   0.05209622
H   -0.47457803  -4.10997731   1.06347086
O   -0.52230650   3.38212012   0.05622501
H   -0.93712990   3.09780528  -0.75821864
H   -0.35684886   4.31614362  -0.07205480
O   -0.38205497  -2.15280493  -1.52514432
H   -0.59814596  -2.55711837  -2.36542235
H    0.41381604  -1.64999818  -1.69836832
O   -0.93719932  -0.83657544   1.99771397
H   -0.16129670  -0.53604355   2.47088155
H   -0.72789465  -1.73408454   1.73906207
O    0.27616360   1.13515040  -3.52770530
H    0.89157868   0.58792671  -3.03980944
H    0.70408402   1.28448655  -4.37080356
O    1.73945722  -0.45705984  -1.81431728
H    1.54551944   0.07175767  -1.04038445
H    2.67709415  -0.63914516  -1.75175710
O    1.49546146   0.08926979   2.86791611
H    1.93117814  -0.72361650   2.61179370
H    1.92257582   0.34301006   3.68609765
O   -1.76195148   2.02422384  -1.99751970
H   -1.06644293   1.75653051  -2.59821928
H   -2.47715088   2.30507936  -2.56834528
H   -1.51789655   0.15718295   1.05723631
