37
Energy:  -1024.43775492
O   -0.97293231   2.78559886   0.52897199
H   -1.01918185   3.59792898   1.03316700
H   -1.29195421   3.02476573  -0.34123263
O   -1.84919814   3.21909761  -1.97495275
H   -1.64193971   2.43960740  -2.49038538
H   -2.37213533   3.76376717  -2.56325848
O   -1.25369439  -0.96705362  -1.03215687
H   -0.52189342  -1.50497013  -1.33439023
H   -1.37898002  -0.32028205  -1.72657886
O   -0.66490484  -0.42044508   3.55178734
H   -0.77869370  -0.41400991   4.50217807
H    0.27715552  -0.31115796   3.42213218
O    0.96703681   0.83712228   0.29134994
H    1.25484042   0.81176268  -0.62120571
H    0.44149404   1.63459559   0.35516966
O   -0.79495450  -2.00653887   1.32319814
H    0.06954191  -2.39876767   1.20058348
H   -0.81462492  -1.75267509   2.24591050
O    1.57285922   0.40497397  -2.38671129
H    1.58436456  -0.54199176  -2.24758762
H    2.40999276   0.59554725  -2.80993830
O   -1.95845731   0.31493736   1.16382126
H   -1.76398838   1.21812800   0.91350074
H   -1.77206126   0.28050147   2.10206565
O    1.84792874  -2.64925070   0.99455256
H    2.33035825  -3.38162019   1.37812595
H    2.05620508  -1.90358667   1.55743619
O   -1.06076614   0.83520043  -3.10295489
H   -0.10920115   0.80267962  -3.00447485
H   -1.21421565   0.62174596  -4.02334736
O    1.13373001  -2.22567840  -1.64521190
H    1.24727516  -3.03096804  -2.15003656
H    1.51944978  -2.42134008  -0.79129820
O    1.93653101  -0.34436970   2.52737003
H    1.68613783   0.17009069   1.75999424
H    2.70854174   0.10257756   2.87445708
H   -1.36572208  -0.84347309   0.43925527
