16
Energy:   -485.80028081
O   -1.50118685   0.48656920  -1.18743501
H   -0.93184424  -0.12611739  -0.72192885
H   -1.23913020   1.34925373  -0.86597962
O   -0.16785043   2.67216602  -0.16005141
H   -0.12171039   1.97726208   0.49661551
H    0.46117705   2.40949678  -0.83203440
O    2.00070750  -1.68371951  -1.78096862
H    1.96531180  -0.87561943  -1.26915493
H    1.25793595  -2.19939676  -1.46696344
O   -1.35543156  -1.55161148   2.30368485
H   -1.22358971  -0.68215968   2.68171017
H   -0.84365423  -1.54175269   1.49484704
C    0.86045405  -0.20682172   0.70579884
O    1.54031600   0.46644588  -0.27474022
O    0.05293932  -1.15405418   0.13328735
O    0.09368234   0.67723706   1.41873741
