16
Energy:   -487.96290362
O   -1.13912257  -1.73392308   1.78400745
H   -0.29361716  -1.73130265   1.33529197
H   -1.58726489  -0.95426853   1.45607589
O    0.30172269   0.62185060  -3.25806085
H    0.74514729   0.63255568  -2.40983218
H   -0.30775305  -0.11402496  -3.20097908
O    1.02677708   1.26204136   1.70431055
H    1.15144529   1.67153680   0.84815451
H    1.06007426   0.32184975   1.52778045
O   -1.40620208   0.71669248   0.51067560
H   -0.70627164   1.01725121   1.09032522
H   -0.96789363   0.14200307  -0.11689880
C    1.00797758  -0.84719612  -0.64995130
O   -0.26818092  -1.12487580  -1.06380134
O    1.12672851  -1.13070978   0.68519551
O    1.27771759   0.47957611  -0.86136556
