16
Energy:   -490.65668648
O    2.46231122  -0.47769859   1.04142793
H    2.35635831  -0.01103795   0.21243235
H    1.56803707  -0.65658006   1.33212884
O    1.14374239   0.38656513  -1.25675514
H    0.90689869  -0.53602703  -1.35141561
H    0.64764514   0.68468690  -0.49436234
O   -0.07646074  -2.08005082  -1.15432559
H   -0.82644685  -1.56968273  -1.45973859
H    0.02615874  -1.82987579  -0.23611345
O   -2.21627147   2.50973752   0.29555899
H   -1.40912631   2.07561306   0.57175547
H   -2.79980268   1.79389542   0.04397748
C   -0.87208291  -0.09015383   1.15377084
O   -1.77498966  -0.31399898   0.14798203
O   -0.14331373   1.03500471   0.87090599
O   -0.02986674  -1.16599878   1.25869834
