16
Energy:   -487.87958233
O    2.00870636   0.70716710   2.31434111
H    1.12775022   0.73504912   2.68766499
H    1.91130851   0.20244515   1.50687516
O   -0.31974556   1.89143859  -0.01599129
H   -0.30159008   1.11119371   0.53819294
H   -0.00275094   1.58880715  -0.86696748
O   -2.17673850  -0.82471497  -0.91977524
H   -1.68827524  -0.51575641  -0.15676796
H   -1.74313882  -1.64123738  -1.16779605
O    0.18141760   0.09372866  -2.05377113
H   -0.72586833  -0.09707344  -1.81574038
H    0.69679113  -0.23291802  -1.31625915
C    0.46764827  -1.28762507   0.74108743
O   -0.03184600  -2.24848993  -0.09808036
O   -0.53786229  -0.43036580   1.10323911
O    1.45502596  -0.58839136   0.09770751
