16
Energy:   -489.49734407
O    0.35418013  -1.57858832  -0.08233788
H    0.75681800  -1.24560626  -0.88435879
H    0.42198729  -0.85369623   0.53908427
O    1.93800264  -0.17171220  -1.85563874
H    2.56770810  -0.44571633  -1.18883696
H    1.38328683   0.47026595  -1.41248384
O   -2.00143886  -0.78713166   1.28730728
H   -1.30353621  -0.19354311   1.56446494
H   -1.59600394  -1.33824309   0.61788173
O   -1.99747494   1.37306951  -0.41242799
H   -1.04838445   1.48818455  -0.36544274
H   -2.18095502   0.64697039   0.18368189
C    1.07288703   1.22509945   0.88407368
O    2.26882191   0.56135402   0.80571455
O    0.18277031   0.47782127   1.60958476
O    0.57899210   1.42608473  -0.37824677
