16
Energy:   -485.60670286
O    0.86318892  -1.51360856   0.27172313
H   -0.05268954  -1.65567436   0.03252487
H    1.00162865  -0.57504720   0.14456632
O   -2.20740734  -0.83102644   0.51499699
H   -1.78366774  -0.31122464  -0.16799838
H   -1.91058070  -0.43706740   1.33531526
O    0.28019799  -0.02963652   2.57190946
H    0.01251213   0.64255449   1.94522344
H    0.55886282  -0.76685311   2.02868808
O    1.10027915   0.72776075  -3.09553472
H    1.86147031   0.96134745  -2.56425596
H    0.37319858   0.69918557  -2.47362706
C   -0.02342154   1.42581884  -0.35699095
O    1.25464920   1.00463638  -0.09989387
O   -0.70336966   1.56816074   0.82390199
O   -0.65960158   0.50033145  -1.14218409
