16
Energy:   -485.64184810
O   -2.71670453  -1.15041269   0.07461702
H   -2.38283874  -0.64717183  -0.66802295
H   -2.03118659  -1.08113646   0.73907003
O   -0.34398372  -0.79875627   1.42068009
H   -0.50939556  -0.01354832   0.89883793
H   -0.08426330  -1.46174212   0.78097163
O    1.72266438   2.17280614  -0.03523852
H    2.17861898   1.33269587  -0.08575569
H    0.80659482   1.95976064  -0.21317115
O    2.20324413  -0.53294047   0.14374694
H    1.53544649  -0.51717647  -0.54184014
H    1.72189089  -0.35506760   0.95176436
C   -0.55706349   0.56575240  -1.43624893
O   -1.81032623   0.32301228  -1.93361009
O    0.12708680  -0.61614357  -1.32598080
O   -0.66156524   1.15046554  -0.20135212
