16
Energy:   -487.97326700
O   -0.63202319   2.34281408   1.26532349
H   -1.21767328   1.58589976   1.24725323
H    0.12861899   2.07001814   0.75225654
O   -0.27661834  -1.58871719  -2.91462381
H   -0.77537598  -0.77912533  -3.02432194
H    0.28629280  -1.42319742  -2.15833940
O   -1.38944169  -0.29519008   0.85701539
H   -0.98452468  -0.00916292   0.03819763
H   -0.65171883  -0.52283461   1.42285530
O    1.11101472  -0.85806800   1.89255243
H    1.23234121  -0.03071246   1.42672570
H    1.05244486  -1.51676807   1.20051513
C    0.99384644   0.44267115  -0.98601677
O   -0.28652992   0.79173635  -1.32623472
O    1.06359292  -0.91311270  -0.80139728
O    1.34790364   1.08083616   0.17379749
