16
Energy:   -487.31021403
O    0.19438319   0.27603991   2.71465317
H    0.81390745   0.69431974   2.11677063
H   -0.43523168  -0.16064316   2.14095913
O    1.24080408  -1.97169741  -0.05138075
H    0.43616626  -1.71086767   0.39667915
H    1.10382588  -1.71061666  -0.96204296
O    1.51819030   0.74415415   0.30825130
H    1.63801861  -0.20541729   0.29457242
H    0.57928131   0.86956970   0.17058246
O   -1.38441955   1.46289064  -2.65186309
H   -1.36432077   2.02906133  -1.88032007
H   -1.27850872   0.57787500  -2.30291886
C   -1.44750767  -0.33679666  -0.14290831
O   -0.94484411  -0.81334742  -1.32493500
O   -1.01857996   0.95006156   0.04974610
O   -1.00957125  -1.12411014   0.88962710
