16
Energy:   -489.99633109
O   -2.01989717  -0.27903562   0.09693522
H   -1.17364423  -0.72375626   0.04885868
H   -1.80055842   0.63576821   0.27372978
O    0.31960081   1.76715337  -0.96092434
H    0.53190461   1.31855189  -0.14244059
H    0.43473552   1.09968304  -1.63728165
O    1.17310737  -0.40777844  -2.44039614
H    1.99846058  -0.02705637  -2.14027179
H    0.78396340  -0.78826221  -1.65297572
O   -1.22830083  -0.39754120   2.78151351
H   -1.80429468  -0.61033186   2.04722265
H   -0.39021237  -0.17945750   2.37374020
C    1.22882831  -0.71887404   0.71962693
O    2.39760835  -0.43727673   0.06265315
O    0.34189085  -1.29315104  -0.15252367
O    0.69458174   0.44055288   1.21771330
