16
Energy:   -485.60919140
O   -1.58468060   1.20119540   2.18071453
H   -0.64660152   1.03647509   2.08528551
H   -1.98095177   0.78134195   1.41721987
O    0.93178561   0.63247412   1.22724910
H    0.68890667   1.35970417   0.65420624
H    0.34790264  -0.08107940   0.97004507
O    0.86062233  -2.19496647  -1.45977570
H    0.15451752  -1.94005224  -0.86591834
H    1.20753664  -1.36616206  -1.78987504
O    1.59492164   0.45758863  -1.55117678
H    0.64338233   0.53976062  -1.48751710
H    1.87257367   0.19688367  -0.67301158
C   -1.50366048  -0.37817068  -0.53793296
O   -2.66590129  -0.04655257   0.10719038
O   -0.70371844  -1.10250573   0.30618211
O   -0.85055996   0.76498088  -0.91799141
