16
Energy:   -495.15691091
O    1.15665555   2.63294964  -0.26619872
H    0.25826949   2.30432138  -0.23246730
H    1.70009710   1.86399617  -0.09411244
O   -0.82311688  -2.28594722   0.76321614
H   -1.72062709  -2.16112545   0.45478981
H   -0.54823005  -1.41818662   1.05929149
O   -0.19498605  -0.89305661  -1.53121562
H   -0.54870779  -0.08088640  -1.16859691
H   -0.28279333  -1.53052902  -0.82258973
O    1.87966257   0.00226198   0.11953142
H    1.14235379   0.17518932   0.70494046
H    1.47369522  -0.25923964  -0.70693048
C   -1.39199351   0.81250386   0.82274852
O   -2.43337887  -0.06868149   0.69630763
O   -1.03288548   1.27550633  -0.41570572
O   -0.32421519   0.17713232   1.40061761
