16
Energy:   -499.10864939
O   -1.78945439  -1.48857159   0.52452513
H   -0.88361585  -1.75312209   0.68484173
H   -1.72780242  -0.82626288  -0.16379025
O   -0.90521362   0.62814080  -1.01462630
H   -0.80211166   0.92649308  -0.11097385
H   -0.24167258  -0.05374327  -1.11940825
O    1.60768379   1.80650533  -1.37772982
H    0.68336418   1.64703277  -1.56860572
H    1.84694366   1.11782133  -0.75748720
O   -0.47700894   0.67964036   1.69537848
H   -1.02450316  -0.09969649   1.59990074
H    0.37507391   0.41859820   1.34603100
C    1.48060872  -1.26405303   0.07794340
O    0.87177800  -1.24876058  -1.14926875
O    0.66979426  -1.89855060   0.98187456
O    1.70684415   0.02274793   0.49115163
