16
Energy:   -485.83870411
O   -0.60566778  -0.39086829  -2.58353156
H    0.14538671  -0.95619683  -2.40310810
H   -1.03753157  -0.28763993  -1.73555195
O    0.92186936   1.35971518  -1.09626178
H    0.38550532   0.92652635  -1.76025945
H    0.67801840   0.93294263  -0.27490087
O    2.28514949  -1.61964478   1.47017904
H    2.08947235  -0.78386417   1.89375087
H    1.56596373  -1.74959594   0.85202342
O   -1.84304591   1.66298598   1.84079847
H   -1.04382024   1.15474412   1.70237736
H   -2.44315173   1.35642787   1.16099925
C   -0.57312095  -0.79432986   0.56778989
O    0.21348992  -1.60565495  -0.20677665
O   -1.54522351  -0.22300906  -0.21048251
O    0.19904165   0.18846297   1.12962917
