16
Energy:   -491.02111221
O    1.73256623  -0.19503981  -0.71810370
H    1.52827957   0.58863694  -0.20785909
H    0.95737344  -0.33641551  -1.26153806
O   -0.95440712   0.26106266   1.60966001
H   -1.22971308   0.48943954   0.72180727
H   -0.60797069  -0.62788648   1.53230970
O    0.81634127   2.06672557   0.53989925
H    0.25902475   1.86991451  -0.21302542
H    0.43618471   1.56139926   1.25847990
O    0.07892128  -2.03099394   0.49145759
H    0.81427782  -1.51611856   0.15921378
H   -0.67795179  -1.71432894  -0.00159238
C   -1.38854309  -0.05237391  -1.62792381
O   -0.31861390  -0.61571893  -2.27201409
O   -0.98262152   1.08113589  -0.97410272
O   -1.89752768  -0.94541901  -0.72173105
