24
Energy:   -120.87011056
O    0.29919885  -0.65280503  -1.75208229
H   -0.04028918   0.16892401  -1.39748236
H    0.52631351  -1.17154785  -0.98035911
O    0.80148951  -1.86966252   0.66675135
H   -0.05529485  -1.82477804   1.09117778
H    1.32735756  -1.20874942   1.11718283
C   -0.80343508   1.81339939   2.30964059
H   -1.36607242   0.98723425   2.69146590
H   -1.27610729   2.72960976   2.59606447
H    0.18888802   1.78401840   2.70880309
C   -0.74156662   1.72608808   0.77336293
N   -0.69550275   1.66108084  -0.37046561
C   -3.02199048  -1.30575446  -1.23942815
H   -2.27509701  -1.62084351  -1.93783291
H   -3.32229029  -0.30407571  -1.46605295
H   -3.86929868  -1.95579695  -1.30585604
C   -2.44526007  -1.35835521   0.18753197
N   -2.01585806  -1.39751886   1.24996864
C    3.10377248   1.15693092  -1.17504135
H    3.21462788   0.26324630  -1.75291596
H    4.03660767   1.68019976  -1.14491952
H    2.35897387   1.78114196  -1.62285236
C    2.67359070   0.79165481   0.25782884
N    2.35330081   0.51969014   1.32466584
