24
Energy:   -112.85538753
O    0.64183118  -0.72769447  -1.79144195
H    0.44070042   0.17928459  -1.56086170
H    0.33211284  -1.23960384  -1.04427718
O   -0.17073956  -1.79285271   0.66749583
H    0.56379768  -1.50539840   1.20976598
H   -0.79818342  -2.16158794   1.28925172
C   -0.79721011   1.76519719   1.99348001
H   -1.78174588   2.17772036   2.06706076
H   -0.12060300   2.35011617   2.58082292
H   -0.80451497   0.75815461   2.35501973
C   -0.34350867   1.77901466   0.52189444
N   -0.00570732   1.78930239  -0.57376791
C   -2.76365291  -0.55732132  -1.62965529
H   -2.21838541   0.28283303  -2.00611804
H   -3.68888514  -0.64841714  -2.15932120
H   -2.18574365  -1.44752084  -1.76554051
C   -3.04854559  -0.35418343  -0.12993160
N   -3.26066114  -0.20293804   0.98668086
C    3.54313366   0.52381956  -0.43352440
H    3.26524608   1.53932869  -0.62436435
H    3.34291048  -0.06978855  -1.30095693
H    4.58683976   0.47703919  -0.20246539
C    2.72909771  -0.01607473   0.75704673
N    2.12301095  -0.41805058   1.64348106
