24
Energy:   -113.32059893
O   -0.02115563  -0.31512515  -1.81056772
H    0.07360474   0.43780775  -1.22717730
H   -0.14768179  -1.05982606  -1.22265316
O   -0.36055548  -2.34084966   0.12477834
H   -1.11868703  -2.22018677   0.69653778
H    0.38654243  -2.06376704   0.65515725
C    0.04909848   1.54394157   2.68715722
H    0.15796473   2.47776451   3.19806136
H    0.79354547   0.85838706   3.03459468
H   -0.92363836   1.14258430   2.88105017
C    0.22097948   1.76427547   1.17272337
N    0.34895271   1.92832407   0.04515853
C   -3.09902216   0.43818738  -1.69453775
H   -2.69518631   1.41076680  -1.88402668
H   -4.15807681   0.45599772  -1.84614624
H   -2.65480130  -0.26898580  -2.36347199
C   -2.79534231   0.03056649  -0.24084460
N   -2.56923886  -0.27292578   0.84149602
C    3.45730089  -0.03453274  -0.65818213
H    3.42613583   1.03492652  -0.64455108
H    3.10731897  -0.38951183  -1.60496700
H    4.46348323  -0.36403095  -0.50349821
C    2.55771559  -0.58861997   0.46223459
N    1.88793344  -1.00116310   1.29643577
