24
Energy:   -112.86305242
O   -0.55005285  -0.70511553  -1.84563227
H   -0.55497926   0.20236318  -1.54118198
H   -0.08782945  -1.18605557  -1.15913533
O    0.63613012  -1.76565750   0.46593107
H    1.32246315  -2.06659755   1.06142574
H   -0.14152748  -1.68353437   1.01796032
C    0.44282386   1.69034501   2.15784662
H    1.38955440   2.18350769   2.23127706
H    0.54783112   0.66970654   2.46144120
H   -0.26488522   2.18047306   2.79331609
C   -0.05232122   1.74409795   0.70060883
N   -0.42097923   1.78411946  -0.38437094
C   -3.55221341  -0.25711723  -0.27263148
H   -3.40070561   0.78224345  -0.47677591
H   -4.56075180  -0.41422775   0.04840698
H   -3.36780428  -0.82551488  -1.16022174
C   -2.58413958  -0.70883103   0.83659695
N   -1.86336462  -1.04515249   1.66246793
C    2.72518696   0.25424730  -1.76263929
H    1.94029717   0.92064966  -2.05376827
H    2.42849077  -0.75449533  -1.96090371
H    3.61060900   0.48145729  -2.31878903
C    3.00751692   0.41994911  -0.25783608
N    3.21772440   0.54332164   0.86255831
