24
Energy:   -113.03358993
O   -0.23438964  -0.40512547  -1.98188004
H   -0.34691525   0.42174092  -1.51298580
H   -0.01890487  -1.04067308  -1.29932793
O    0.38928907  -2.00720666   0.18038027
H    1.11307260  -2.22545934   0.76752167
H   -0.38186643  -1.98747794   0.74709169
C    0.20251522   1.34998554   2.60993340
H    0.42162208   2.29378123   3.06396209
H    1.05677963   0.71028912   2.68687436
H   -0.62801861   0.89765757   3.11044518
C   -0.14698975   1.56332443   1.12536855
N   -0.40721210   1.72216494   0.02004254
C   -3.44152858   0.04198843  -0.74692665
H   -3.05147411   1.03756135  -0.78682997
H   -4.49815226   0.07922387  -0.58243044
H   -3.24199478  -0.45661119  -1.67239073
C   -2.76934551  -0.72687416   0.40573125
N   -2.26887466  -1.29932731   1.26393745
C    3.02921203   0.55594939  -1.48650947
H    2.48517175   1.46971678  -1.60461755
H    2.58566795  -0.20440319  -2.09481178
H    4.04557487   0.70469515  -1.78614319
C    2.98779244   0.12106328  -0.00977033
N    2.95695367  -0.20272920   1.08972908
