24
Energy:   -112.78711171
O   -1.57854917   0.79802956   0.70998317
H   -0.97056375   1.01664571   1.41623564
H   -2.02362127   1.62219176   0.51275402
O   -0.76866544  -1.85197042   0.24359390
H    0.04632101  -1.62805371  -0.20572808
H   -1.19075551  -1.00899945   0.40933998
C   -1.67293056  -0.46229132  -2.69294962
H   -2.28599957  -0.83922565  -1.90113709
H   -0.72009994  -0.94852433  -2.66865236
H   -2.14701030  -0.65340211  -3.63296247
C   -1.47961253   1.05508379  -2.51462152
N   -1.33567847   2.18483854  -2.38184814
C    1.61671091  -1.75305436   2.65796464
H    2.25491741  -1.91894626   1.81530664
H    0.81542342  -2.46201828   2.64355621
H    2.17984519  -1.86956326   3.56029748
C    1.04093218  -0.32622769   2.59281475
N    0.61223874   0.73610962   2.54430769
C    1.66662060   2.03825807  -0.62545474
H    1.71940985   2.49917236  -1.58964948
H    2.53236221   2.30362897  -0.05539435
H    0.78760082   2.37508652  -0.11676042
C    1.60975408   0.50816642  -0.79033575
N    1.56741437  -0.63105636  -0.91309715
