24
Energy:   -112.89474650
O    1.77306414   0.66643546  -0.85613063
H    1.18406964  -0.00434398  -1.20163356
H    1.27968252   1.07609750  -0.14550876
O   -0.16339397  -1.30556529  -1.38272074
H   -0.00028957  -1.91744715  -0.66492593
H   -0.96939068  -1.62284713  -1.79006996
C    2.76563403  -0.88899135   1.95709418
H    3.38286960  -0.64241749   1.11857062
H    3.34260230  -1.42976338   2.67790783
H    2.39168699   0.00977966   2.40124886
C    1.58507530  -1.75912584   1.48725692
N    0.70609567  -2.40698053   1.13744173
C   -2.12280509  -0.27135238   1.77050469
H   -3.02222625   0.30045517   1.86525640
H   -1.94009012  -0.80229864   2.68133420
H   -2.22670370  -0.96884623   0.96576466
C   -0.94174552   0.67370932   1.48144299
N   -0.06239299   1.37735072   1.26622341
C   -1.00866581   2.11786379  -2.24048264
H   -0.52980009   2.49399239  -1.36064455
H   -1.42644366   2.93207996  -2.79493083
H   -0.29060663   1.60530297  -2.84593413
C   -2.13005714   1.14235982  -1.83740261
N   -2.96498395   0.41605278  -1.53729120
