24
Energy:   -119.86300322
O   -0.20644467   0.34009759  -2.62464672
H    0.32894875  -0.38927061  -2.31222431
H   -1.00432977   0.29503949  -2.09778717
O    1.01148687   2.28026802  -1.16313212
H    1.26010685   2.99124895  -1.75383177
H    0.59460733   1.63166984  -1.73037430
C   -1.08883078   1.75608748   1.59593370
H   -0.85040631   1.09643093   2.40396042
H   -1.81201169   2.47372941   1.92288710
H   -0.20255806   2.26314263   1.27606681
C   -1.66671512   0.94285007   0.42277787
N   -2.09697628   0.33735785  -0.45068997
C    2.45766024  -0.09603402   1.03213177
H    2.33833283   0.95461685   0.86844334
H    3.49960120  -0.33104237   1.09560781
H    1.97350983  -0.37194606   1.94557034
C    1.82659997  -0.87284382  -0.13830809
N    1.35674691  -1.45121403  -1.00975377
C   -1.65021864  -2.98161715   0.36211660
H   -1.06640593  -2.88057731  -0.52886816
H   -2.61981512  -2.55792160   0.20317058
H   -1.74987011  -4.01830089   0.60758655
C   -0.95155354  -2.24479292   1.51994091
N   -0.43136561  -1.69619378   2.38199373
