24
Energy:   -113.19154673
O   -0.11133783  -0.49454009  -1.88187882
H   -0.08192134   0.32263325  -1.38429039
H   -0.01538996  -1.18104848  -1.22177877
O    0.02937354  -2.18468930   0.22863284
H   -0.75677905  -1.90770426   0.69924441
H    0.65186741  -2.41759736   0.91746305
C    0.17570984   1.56362483   2.62712385
H    0.15714314   2.55265071   3.03502490
H    1.07622394   1.07043045   2.92834262
H   -0.66921074   1.01388383   2.98600147
C    0.12241880   1.64121435   1.09000319
N    0.08274120   1.69898327  -0.05445301
C   -3.40656370   0.27210293  -1.04644555
H   -3.20980890   1.32064710  -1.12856044
H   -4.46360368   0.10885672  -1.01617591
H   -2.99125944  -0.23597909  -1.89159295
C   -2.76612268  -0.27080702   0.24455565
N   -2.28928523  -0.67502816   1.20576472
C    3.15046246   0.17927248  -1.34272127
H    2.68435389   1.11412275  -1.57444948
H    2.69311913  -0.59928899  -1.91681030
H    4.19258948   0.23192847  -1.57957081
C    2.97965867  -0.12145237   0.15794212
N    2.85248749  -0.34535569   1.27525424
