24
Energy:   -117.89254532
O   -0.97918656   1.91523005   1.89424095
H   -0.61151777   1.03693781   1.99249700
H   -1.20001180   2.18409602   2.78596913
O   -0.00639578  -0.66371698   2.10906533
H    0.84225885  -0.98234760   1.80167031
H   -0.64750836  -1.15242489   1.59295383
C    1.32298143  -2.65083803  -1.68960162
H    2.14318254  -3.06861337  -2.23516012
H    0.85058405  -1.89377546  -2.28002187
H    0.61515042  -3.42102044  -1.46444964
C    1.84115249  -2.03066998  -0.37868959
N    2.22695440  -1.56892668   0.59734400
C   -2.73429480   0.46805372  -1.29085594
H   -3.67182734   0.18878244  -1.72437694
H   -2.07169571   0.80495062  -2.06050653
H   -2.88900416   1.25575107  -0.58339782
C   -2.11592920  -0.74858160  -0.57739783
N   -1.65552790  -1.65442190  -0.04619584
C    1.84567838   2.07377515  -0.01413084
H    2.90221098   2.10620638  -0.18022497
H    1.64452253   1.56287928   0.90424861
H    1.46256292   3.07129519   0.04132543
C    1.16597396   1.32672205  -1.17667700
N    0.65990313   0.77050706  -2.04224545
