24
Energy:   -116.86443538
O    0.92630033   1.54400920   1.61633726
H    0.83157200   1.80919445   0.70149565
H    1.48089235   0.76451094   1.58405707
O   -1.70054729   1.10646997   2.27988035
H   -0.77931074   1.27567662   2.08258822
H   -1.82421763   1.45266659   3.16367071
C    2.63535925  -1.09345922  -1.85100138
H    2.46274747  -0.15022645  -2.32578270
H    1.91719222  -1.80544896  -2.20058089
H    3.62122532  -1.43621511  -2.08655519
C    2.49850445  -0.93296378  -0.32551393
N    2.39660982  -0.81346764   0.81028082
C   -1.93007743   1.15062807  -2.30475523
H   -1.92781511   0.15925414  -2.70733788
H   -2.12903314   1.85285971  -3.08717867
H   -2.68835087   1.22893986  -1.55389722
C   -0.55563661   1.45406692  -1.67990540
N    0.46769705   1.67999094  -1.21467630
C   -0.86834296  -1.98031668   1.39838250
H   -0.61321842  -2.95084458   1.76971420
H   -1.85771264  -1.72550528   1.71637291
H   -0.17485140  -1.25944614   1.77826959
C   -0.80968820  -1.98773463  -0.14048221
N   -0.76601706  -1.99325764  -1.28623693
