24
Energy:   -113.17070073
O   -0.13483938  -0.72340675  -1.97852633
H   -0.08679139   0.15311572  -1.59690924
H    0.14048498  -1.30801910  -1.27237001
O    0.46231571  -2.19826450   0.37042770
H    1.07033629  -2.14146157   1.10752759
H   -0.40228231  -2.07603091   0.76255150
C   -0.11478955   1.57865888   2.28068866
H    0.82531377   1.18553176   2.60711934
H   -0.90408651   0.93607550   2.61083409
H   -0.25491829   2.55625426   2.69247781
C   -0.13015738   1.66230136   0.74303858
N   -0.14159943   1.72457699  -0.40181180
C   -3.33775138  -0.03982919  -0.97707251
H   -3.15644474   1.01467211  -0.98449450
H   -4.38956635  -0.22034897  -0.89963241
H   -2.96750569  -0.47177566  -1.88329515
C   -2.61774585  -0.67603037   0.22643906
N   -2.08166900  -1.14971107   1.12250812
C    3.01669342   0.70837879  -1.01981700
H    2.43416641   1.60376645  -1.08181206
H    2.64888086  -0.00605670  -1.72635429
H    4.03973931   0.93256423  -1.23894502
C    2.91205050   0.12528244   0.40167817
N    2.83413909  -0.30885930   1.46004593
