24
Energy:   -119.84883723
O    0.12316421  -0.15616980   2.77109525
H    0.03785522  -0.00436215   3.71232246
H   -0.45197373   0.49531707   2.36983094
O   -1.45423504   1.64733671   1.48919455
H   -1.91961980   1.03042711   0.92433048
H   -0.78274918   2.03013725   0.92456870
C   -0.79669329   1.07405044  -3.17393124
H   -0.22534582   1.97572583  -3.10014955
H   -1.59882511   1.10116806  -2.46629554
H   -1.19610584   0.98478597  -4.16256695
C    0.11032075  -0.13424523  -2.87569122
N    0.78563393  -1.03387627  -2.65363798
C    2.59034652   0.06136457   0.25501654
H    2.38888715  -0.36253591   1.21658957
H    3.58017925   0.46759309   0.24459341
H    2.50873750  -0.69845427  -0.49392565
C    1.57313238   1.18037209  -0.03601194
N    0.81577022   2.01352405  -0.25269586
C   -0.45366902  -2.60422799   0.28519823
H    0.10812054  -2.82802060  -0.59753024
H   -1.01420379  -3.46683682   0.57948696
H    0.21530164  -2.32769031   1.07317302
C   -1.41829435  -1.43862748  -0.00198362
N   -2.13650176  -0.57078492  -0.21580355
