24
Energy:   -112.64852260
O    0.24724527   0.00043916  -1.99216875
H    0.16038614   0.75388890  -1.40821599
H    0.32095833  -0.75146736  -1.40443171
O    0.22788245  -1.90008727   0.03516137
H   -0.69826602  -1.79337237   0.25217010
H    0.50287822  -2.67203469   0.52983940
C   -0.38994110   0.79270387   2.63758933
H   -1.42635674   0.70181202   2.88755226
H    0.09474420   1.42618077   3.35081179
H    0.06655332  -0.17492831   2.65172721
C   -0.25287233   1.40445511   1.23097191
N   -0.15081840   1.85993171   0.18368130
C   -3.10930733   0.61846312  -1.67813879
H   -2.91209064   1.62648592  -1.37831250
H   -4.14540790   0.51597264  -1.92489858
H   -2.51341402   0.37773833  -2.53362802
C   -2.75958192  -0.33836444  -0.52324782
N   -2.49919545  -1.05076605   0.33662100
C    3.22635035   0.19616396  -0.43262733
H    2.73078338   1.10338692  -0.70877957
H    2.84421443  -0.61215563  -1.02041186
H    4.27746686   0.29705937  -0.60546627
C    2.97676393  -0.09139741   1.05955734
N    2.79093550  -0.30549992   2.17055665
