24
Energy:   -117.09689918
O   -0.34489589   1.59045335  -2.59850138
H   -0.48381188   1.82207728  -1.68019612
H   -0.63964553   2.35898324  -3.08708740
O   -0.67845234   2.18327078   0.07755585
H   -1.32640942   1.76086196   0.64143017
H    0.16604312   1.91426516   0.43907382
C   -0.26534478  -1.16105194   3.20364109
H    0.73005458  -0.83263027   2.98865388
H   -0.37610232  -2.18264717   2.90535423
H   -0.45061632  -1.07405031   4.25388119
C   -1.27191698  -0.28861594   2.43081002
N   -2.02135573   0.36095231   1.85540217
C    3.09303596  -0.72144411  -0.66832781
H    2.88299357  -1.73835071  -0.41009663
H    4.14338316  -0.53956771  -0.57564101
H    2.78718193  -0.53921189  -1.67735894
C    2.32382502   0.21809865   0.27886485
N    1.75111251   0.91763094   0.98409283
C   -1.88000152  -1.06802219  -1.43211867
H   -1.64420415  -1.05135791  -2.47568088
H   -1.98108836  -0.06508290  -1.07324080
H   -2.79930684  -1.59471480  -1.28254693
C   -0.75076949  -1.77744676  -0.66195517
N    0.08999508  -2.30564560  -0.08853344
