24
Energy:   -112.72547256
O   -0.42837936   0.14090908  -2.00341376
H   -0.63021315   0.82219340  -1.36205064
H    0.16905613  -0.45036843  -1.54549063
O    1.06952681  -1.50004308  -0.32160356
H    0.30003505  -1.87487816   0.10689725
H    1.81356867  -1.90075553   0.12791073
C    0.02443684   0.46363279   2.68264377
H    0.27695632   1.20956086   3.40702310
H    0.88789376  -0.13006227   2.46615497
H   -0.75092905  -0.16296670   3.07133377
C   -0.46578856   1.14636715   1.39223575
N   -0.83078365   1.65469391   0.43146833
C   -3.37554151  -0.95069889  -0.70967577
H   -3.45607588   0.08206970  -0.44171411
H   -4.31521455  -1.43580460  -0.54662324
H   -3.10694061  -1.03136314  -1.74226762
C   -2.29378808  -1.62282900   0.15614790
N   -1.48837348  -2.12326041   0.80079298
C    2.53571263   1.67832519  -1.13717650
H    3.37586371   2.19393464  -1.55334141
H    1.69313106   2.33705206  -1.10501585
H    2.30162674   0.82921718  -1.74472771
C    2.87612001   1.21023870   0.28992471
N    3.12956878   0.86172703   1.35246643
