24
Energy:   -113.13530994
O   -0.25923371  -0.42547967  -1.93540850
H   -0.19403500   0.40348522  -1.46127963
H   -0.20035158  -1.09630239  -1.25514265
O   -0.06373448  -2.07555465   0.26917633
H    0.66289110  -2.32263324   0.84118969
H   -0.79698403  -1.92252482   0.86512836
C    0.41980585   1.67463487   2.50103687
H    0.00114853   2.52575470   2.99623507
H    1.47842326   1.65698869   2.65568767
H   -0.01378149   0.78120200   2.89938197
C    0.12278283   1.76093146   0.99241822
N   -0.09836431   1.82518319  -0.13081694
C   -3.33861939   0.26956781  -0.76434922
H   -2.86751504   1.22390761  -0.87478661
H   -4.39971537   0.39894908  -0.71707447
H   -3.09170352  -0.34911398  -1.60170487
C   -2.84484588  -0.39974231   0.53172627
N   -2.47720906  -0.89807412   1.49671339
C    3.10496279   0.07105468  -1.48717295
H    2.58029631   0.99258935  -1.62999846
H    2.71185231  -0.66985883  -2.15156019
H    4.14504174   0.21743184  -1.69139979
C    2.92893905  -0.39957928  -0.03145343
N    2.79788138  -0.74998765   1.05239592
