24
Energy:   -112.09122817
O    0.14333351  -0.10346415  -1.80207029
H   -0.05653429   0.61065195  -1.19682413
H    0.13856876  -0.88946533  -1.25579995
O    0.20241643  -2.11041517   0.08005885
H    0.95760662  -1.76103301   0.55318858
H   -0.48370779  -2.18327558   0.74350196
C   -0.27310439   1.41573122   2.75936206
H   -0.24552535   2.34158587   3.29502310
H    0.62263953   0.86395111   2.95450465
H   -1.12022125   0.84470171   3.07750890
C   -0.38278442   1.69919966   1.24965483
N   -0.46444618   1.91025480   0.12560917
C   -3.11219704  -0.15169866  -1.15673284
H   -3.00433562   0.91201359  -1.19895067
H   -4.07798621  -0.42719273  -1.52585801
H   -2.35602579  -0.61103419  -1.75849277
C   -2.96574347  -0.62504466   0.30138064
N   -2.85670213  -0.97747228   1.38701240
C    3.36094323   0.37513141  -1.33697045
H    3.32376361   1.43934766  -1.44166829
H    2.77657927  -0.07986560  -2.10923697
H    4.37545852   0.04424139  -1.41551738
C    2.79535674  -0.02545532   0.03825396
N    2.37425189  -0.32371035   1.06217105
