24
Energy:   -113.06537804
O    0.88563101  -1.46895725  -1.01086180
H    0.74510032  -2.38766647  -0.78182828
H    0.11392975  -1.22872009  -1.52369230
O    1.65195092   1.17392957  -0.23936187
H    0.88822121   1.34271788   0.31241642
H    1.55519738   0.26099796  -0.51033507
C   -2.58034818  -0.78714630   0.83684690
H   -2.67928755  -1.32297326   1.75771640
H   -2.21102088  -1.44585014   0.07881940
H   -3.53523228  -0.40444612   0.54250693
C   -1.59518360   0.38128502   1.02610600
N   -0.86168379   1.25123525   1.16701800
C    1.91958849  -0.77690953   2.45325230
H    2.59354044  -1.07994109   3.22711329
H    1.40555180   0.11147328   2.75564501
H    2.47022548  -0.58267643   1.55660772
C    0.89692258  -1.89893024   2.19474898
N    0.13550133  -2.73432566   2.00228150
C   -0.55510905   2.52166152  -2.45551103
H   -0.99794995   3.04032094  -1.63102057
H   -0.91271519   2.93954099  -3.37333110
H    0.50926224   2.62099430  -2.40918772
C   -0.93496334   1.03077801  -2.38785698
N   -1.21778213  -0.07925253  -2.33748546
