24
Energy:   -117.30831433
O    1.33279142   0.88347268   1.67128650
H    0.50747758   1.35410832   1.78786694
H    1.58130715   1.05612335   0.76317663
O    1.63064311  -1.83458274   1.91841812
H    1.54751261  -0.88182065   1.87885084
H    2.17607747  -1.99612726   2.68824705
C   -1.74406633   2.81294320  -1.32111771
H   -0.81990638   2.87786294  -1.85648113
H   -2.24086048   3.76015095  -1.35098646
H   -2.36661185   2.06927292  -1.77310299
C   -1.46315295   2.42656480   0.14291760
N   -1.25400017   2.13888852   1.23295844
C    1.29557777  -1.37142694  -2.44850830
H    0.43587972  -1.38085520  -3.08547812
H    1.20366409  -2.14393801  -1.71388076
H    2.17525386  -1.53900539  -3.03415881
C    1.39911148  -0.00482871  -1.74616219
N    1.47619704   1.01266579  -1.22323359
C   -1.56170844  -1.58397633   1.13939297
H   -0.90433743  -2.42810981   1.12517320
H   -2.50083260  -1.87038496   1.56473401
H   -1.12693599  -0.80320722   1.72784145
C   -1.78194225  -1.08056376  -0.29924279
N   -1.94591633  -0.70575023  -1.37037251
