24
Energy:   -120.13312558
O    2.44851935   1.05758870   0.71669617
H    2.23349401   0.97152091  -0.21206015
H    3.32651335   1.43874739   0.72543831
O    1.69843761   0.75227533  -1.87714353
H    1.46538022  -0.17459275  -1.82393016
H    0.86242347   1.21401056  -1.81301268
C   -0.84773513   1.81753972   1.71761777
H   -1.50083706   1.04752933   2.07179575
H   -1.19452939   2.76776619   2.06647661
H    0.14202337   1.64243714   2.08451871
C   -0.83314440   1.81018011   0.17770448
N   -0.82228094   1.80470055  -0.96883096
C   -2.60265509  -1.11478289  -1.95566390
H   -1.79170424  -1.71232420  -2.31650081
H   -2.48755760  -0.10960865  -2.30391151
H   -3.52766523  -1.51356054  -2.31654021
C   -2.60414931  -1.12752789  -0.41571736
N   -2.60526183  -1.13701713   0.73084283
C    0.75909449  -1.88281751   1.68852389
H   -0.24736199  -1.83907308   2.04912335
H    1.30900262  -1.04497393   2.06338157
H    1.21862882  -2.78946449   2.02276711
C    0.75479688  -1.84675124   0.14895228
N    0.75159712  -1.81989826  -0.99732877
