24
Energy:   -112.85970896
O    1.39260533  -1.16882688   0.64766463
H    1.26871348  -1.37237130  -0.27940188
H    1.34857548  -2.01773443   1.08772053
O    1.23554936   1.63636756   0.35083847
H    1.40060386   0.71523376   0.55208802
H    0.30191605   1.67303836   0.14295401
C   -2.30478076  -1.38572486  -0.77687262
H   -2.79231078  -1.46337989  -1.72617992
H   -2.98985354  -1.65663735  -0.00086953
H   -1.46155222  -2.04401384  -0.75406192
C   -1.83072720   0.06339843  -0.56027406
N   -1.47777278   1.14233658  -0.39900659
C   -0.41876919   0.56784187   3.12881509
H   -0.66232667   0.80805845   4.14265725
H   -0.84791115   1.29903057   2.47605222
H    0.64448716   0.56295805   3.00897698
C   -0.98088018  -0.82322898   2.78160749
N   -1.39939737  -1.85894446   2.52309566
C    1.23006879   1.34540991  -3.05075265
H    1.90666263   1.87312682  -2.41150636
H    0.27618477   1.83001999  -3.03820508
H    1.61408513   1.33964287  -4.04945045
C    1.07646262  -0.10328654  -2.55146942
N    0.96209585  -1.18190689  -2.17973037
