24
Energy:   -112.67930039
O    0.44023264  -1.78541783   0.46300960
H    1.00742579  -2.25321125   1.07594768
H   -0.39086710  -1.69199663   0.92860336
O   -0.34083480  -0.56164575  -1.91296234
H   -0.33753994   0.33575686  -1.57996152
H   -0.02791385  -1.09097875  -1.17939646
C    2.93356441  -0.03743103  -1.42070509
H    2.28125248   0.72193666  -1.79852785
H    2.52621498  -1.00123301  -1.64442654
H    3.89562617   0.05833559  -1.87914266
C    3.07403511   0.11896944   0.10487902
N    3.17862193   0.23541671   1.24074573
C   -3.48853429   0.13206997  -0.67850839
H   -4.51467791  -0.16979437  -0.65009395
H   -3.04936626  -0.18346953  -1.60179889
H   -3.42788029   1.19749205  -0.60043156
C   -2.73102332  -0.51274251   0.49707401
N   -2.16702196  -0.99283472   1.37234854
C    0.28155555   1.58331727   2.25144630
H    1.19615026   2.09086014   2.47687240
H    0.38338055   0.54412001   2.48511233
H   -0.51224766   2.00353652   2.83298851
C   -0.03884637   1.74370085   0.75370810
N   -0.27740016   1.86311372  -0.36142607
