24
Energy:   -119.82851299
O    0.12110660  -1.69486953  -2.18894679
H    0.13672164  -2.44935790  -2.77778914
H   -0.01750706  -2.07149171  -1.31993940
O   -0.26630046  -2.60921564   0.34243507
H    0.48165200  -2.16717829   0.74418368
H   -1.01566586  -2.05201070   0.55268730
C   -0.18838749   1.07064578   3.25878769
H   -0.77457579   0.21554587   2.99404705
H   -0.65795322   1.58793023   4.06923443
H    0.78955386   0.75442846   3.55633841
C   -0.07639518   2.01196574   2.04512610
N    0.00698818   2.71282124   1.14149988
C   -1.77939560   1.22365814  -1.56134265
H   -1.06568540   0.79858980  -2.23575709
H   -1.42629689   2.17473628  -1.22123860
H   -2.71493900   1.34985465  -2.06506091
C   -1.96832016   0.28496694  -0.35520570
N   -2.10898307  -0.41393133   0.54281808
C    2.19250057   0.91995826  -1.04102352
H    1.85203687   1.90361820  -0.79323779
H    1.64842842   0.55699153  -1.88786455
H    3.23618370   0.95208061  -1.27467449
C    1.96344707  -0.01960980   0.15745315
N    1.79290633  -0.71916093   1.04977352
