24
Energy:   -119.08313296
O   -0.55611536  -0.05679717  -1.23122683
H   -0.03951404   0.68794299  -1.53898815
H    0.04156270  -0.54628301  -0.66605748
O    1.10413692  -1.28637087   0.57413574
H    0.99657924  -0.64273563   1.27441917
H    0.50739141  -1.99734089   0.80790543
C   -1.29721442   2.52246597   0.92565831
H   -1.93680787   1.88516044   0.35149625
H   -0.81418803   3.22197273   0.27583150
H   -1.87918821   3.05222617   1.65061330
C   -0.23426581   1.67048251   1.64389534
N    0.55714775   1.03614209   2.17865545
C   -2.96656111  -2.57086354  -1.05144052
H   -3.01991720  -3.41822723  -1.70261491
H   -2.67901965  -1.70683123  -1.61328319
H   -3.92436237  -2.40338857  -0.60482214
C   -1.92509331  -2.83589311   0.05160261
N   -1.14967320  -3.03321968   0.87286836
C    3.50904248   1.09834189  -0.00907954
H    3.54601902   0.03512707  -0.12356610
H    3.38963406   1.34167359   1.02601969
H    4.41844803   1.52819808  -0.37391414
C    2.31881645   1.65969010  -0.80898591
N    1.43263908   2.07763936  -1.40455255
