24
Energy:   -113.05339752
O   -0.36542311  -0.52612697   1.97035481
H   -0.22024370   0.36158182   1.64305082
H   -0.51152174  -1.05114878   1.18343732
O    0.28246225   1.82326718   0.57009333
H    0.03209625   2.56701176   0.02201239
H    1.19610380   1.65307223   0.34091076
C    2.72634092  -1.92216426   1.35955235
H    3.72352915  -2.11830395   1.69428365
H    2.40027446  -2.71881513   0.72399972
H    2.07405592  -1.85037992   2.20469754
C    2.69923000  -0.59660144   0.57613152
N    2.67904468   0.39034033  -0.00716090
C    0.34228210  -0.13780983  -2.76152909
H   -0.49484185   0.11095921  -3.37978279
H    1.05990258  -0.68524250  -3.33619196
H    0.79167306   0.75997446  -2.39148823
C   -0.13251010  -1.00009722  -1.57720110
N   -0.48601448  -1.64210938  -0.69541507
C   -3.17286519   0.55895261   0.30507828
H   -2.77863215   0.85644367   1.25427771
H   -2.92296362  -0.46488079   0.12010945
H   -4.23695906   0.67111697   0.30981798
C   -2.56843668   1.44291135  -0.80166611
N   -2.11841219   2.10105881  -1.62568761
