24
Energy:   -117.64508381
O    0.11742555  -1.97741847   0.94913936
H   -0.70016107  -1.49326979   1.06482872
H    0.75645228  -1.49896978   1.47730935
O    0.30418296  -2.20988595  -1.77662429
H    0.00954145  -3.10628612  -1.93751234
H    0.27994508  -2.11658142  -0.82429103
C   -0.04521135   2.22781416   2.54190464
H    0.28727625   2.97084715   1.84745943
H   -0.01325454   2.62718054   3.53406610
H   -1.04857668   1.94157063   2.30479339
C    0.87435879   0.99558757   2.45467862
N    1.55902057   0.07813887   2.38973487
C   -2.67717368   0.62273723  -1.61063112
H   -3.71857784   0.49424312  -1.82007521
H   -2.09969932   0.06318520  -2.31655177
H   -2.42376924   1.65965959  -1.68464000
C   -2.37417401   0.12061541  -0.18667014
N   -2.14857698  -0.25323711   0.87353354
C    2.52697796   0.17760008  -1.15745936
H    2.54069214  -0.22474920  -2.14883576
H    2.43902924  -0.62024120  -0.44991896
H    3.43468443   0.71498108  -0.97804443
C    1.32739929   1.13155205  -1.00717082
N    0.43425844   1.84181266  -0.89527417
