24
Energy:   -112.83595544
O    0.28441984  -1.81142478   0.24625792
H    0.43381161  -1.47529608   1.12996118
H    1.04088987  -2.37124328   0.07136314
O   -1.99399814  -0.24709439  -0.26177045
H   -1.52100707   0.57457288  -0.39358171
H   -1.30715484  -0.90216508  -0.13783293
C    2.44608255   1.09813975   0.17559001
H    3.10824324   1.36760754  -0.62054472
H    2.46663909   0.03719227   0.31294705
H    2.75840493   1.58074027   1.07805916
C    1.01396678   1.54269568  -0.17514414
N   -0.05230851   1.87368777  -0.43628165
C   -1.85964753   1.27176151   2.86736818
H   -2.14019548   1.38447877   3.89376374
H   -2.66916186   0.83279550   2.32248792
H   -1.62956936   2.23110040   2.45308323
C   -0.62191108   0.36058333   2.77060656
N    0.29963996  -0.31783024   2.69856313
C   -0.26220777  -0.73440795  -3.16819935
H   -0.49575959   0.29876413  -3.01684153
H   -0.93696448  -1.33962054  -2.59958684
H   -0.35767743  -0.97321243  -4.20683165
C    1.18248504  -1.00665023  -2.70956352
N    2.25812450  -1.20934698  -2.36808829
