24
Energy:   -112.75245333
O   -0.31821459  -0.55778084  -1.95753615
H   -0.33343967   0.33174934  -1.60435615
H    0.04689725  -1.09033311  -1.25091512
O    0.56975951  -1.79832078   0.40193788
H    1.18998293  -2.18966970   1.01708078
H   -0.24838079  -1.73360281   0.89457354
C    0.10900531   1.64057277   2.29813863
H    0.87209879   2.33350213   2.58525782
H    0.42259935   0.64571103   2.53648289
H   -0.79420295   1.86587150   2.82573167
C   -0.14067558   1.75086812   0.78252180
N   -0.32657435   1.83298803  -0.34592383
C   -3.46000480  -0.18241367  -0.74202709
H   -3.34670136   0.87941780  -0.80967650
H   -4.49366863  -0.42282919  -0.60550405
H   -3.10398996  -0.63719958  -1.64276140
C   -2.64776760  -0.71008779   0.45523260
N   -2.04302009  -1.10296516   1.34664686
C    2.93047494   0.21361070  -1.34169384
H    2.26532133   0.96617824  -1.71062872
H    2.55965255  -0.75327257  -1.61100144
H    3.90121635   0.35502229  -1.76896773
C    3.02436417   0.31853834   0.19185597
N    3.09426898   0.39666175   1.33365350
