45
Energy:   -617.27739791
O   -2.89534714  -1.10163726   3.22817606
H   -2.31320381  -1.68696951   2.74368958
H   -3.39597335  -0.64659267   2.55102049
O    2.06621967  -0.17498335   0.08830976
H    1.79773514  -0.04928300   0.99844564
H    1.53229955  -0.90696743  -0.22049511
O    2.02361566  -2.26751831  -3.11398070
H    1.44184101  -1.77507851  -3.69300845
H    2.71391802  -1.64616334  -2.88239378
O    3.67594341  -0.23291188  -2.14883439
H    3.26826065  -0.19305815  -1.28371110
H    4.61642757  -0.23965666  -1.97085718
O    1.92503121   1.43842625  -3.52169259
H    1.46079817   1.80571795  -2.76948494
H    2.66102425   0.96045891  -3.13947105
O    0.49835010   0.19625525   2.38734928
H    0.18228080   0.22256278   3.29047716
H    0.00642477   0.88531322   1.94076174
O   -0.90460735  -1.97536242   1.49632238
H   -0.45735907  -2.29261054   0.71174960
H   -0.32399535  -1.29997295   1.84699404
O   -1.10666377   0.30156350   4.68425458
H   -1.04605076  -0.09477482   5.55343457
H   -1.78874545  -0.20072316   4.23849170
O    0.40918898  -2.05997774  -0.93961877
H    0.97024589  -2.36078241  -1.65443590
H   -0.21705068  -1.46941962  -1.35830344
O   -2.59257522  -0.15188807   0.34219296
H   -2.06035294  -0.86240437   0.70015648
H   -2.40229468  -0.15865541  -0.59587919
O   -1.15102716  -0.14543703  -2.08220233
H   -0.62355593   0.59969583  -1.79448205
H   -0.86609339  -0.30821914  -2.98139451
O    0.54995361   1.75647269  -1.11655240
H   -0.00102419   2.10943079  -0.41792812
H    1.15184577   1.16111570  -0.66988952
O   -1.88905326   2.71567838   3.59794874
H   -2.26093066   3.30500020   4.25417953
H   -1.62563056   1.94027428   4.09351790
O   -1.08345565   1.98741974   1.09151087
H   -1.42436726   2.39530967   1.88752401
H   -1.74657665   1.34062064   0.85036088
O    0.30408817  -0.51004101  -4.42299749
H    0.87055635   0.22939451  -4.20258707
H    0.14290093  -0.41733587  -5.36196303
