45
Energy:   -622.67582445
O   -0.38042612  -1.89416826   0.11250007
H    0.11665223  -2.39494623   0.75931255
H    0.28668231  -1.48838035  -0.44115539
O   -1.13815176   0.41802844   1.37513223
H   -1.94506958   0.64823306   0.91456592
H   -0.90058985  -0.44176893   1.02793681
O    3.32950274  -1.51781513   0.64758010
H    2.75068049  -2.15004751   1.07358348
H    2.86566596  -1.26839543  -0.15171778
O    1.53346838  -0.98144327   3.76469560
H    0.70880950  -0.55964275   4.00605406
H    2.03621748  -0.29353794   3.32850591
O   -3.29963664   0.80625176  -0.19476067
H   -3.10588605   1.44410823  -0.88166072
H   -3.23362382  -0.04336759  -0.63067478
O    0.15959770   2.76850525  -2.01451648
H    0.53861989   2.54498807  -1.16444936
H    0.50553520   2.10646814  -2.61306970
O    0.78274435   0.57313667  -3.61641000
H   -0.14197371   0.32772331  -3.64642079
H    1.07051465   0.53640101  -4.52858903
O    1.54731273  -0.51398369  -1.21482040
H    1.38512304  -0.24014244  -2.11755919
H    1.43156880   0.28317878  -0.69774480
O    1.07746447   1.63874779   0.36256042
H    0.27195042   1.33346732   0.77991255
H    1.75778713   1.49562067   1.02051753
O   -0.88700181   0.25235607   4.08465575
H   -1.57540339   0.76349238   4.51018459
H   -1.05965035   0.34999782   3.14823148
O    2.99996188   0.71079870   2.12417700
H    3.84629095   1.05716442   2.40700156
H    3.21849703  -0.06596030   1.60927927
O   -2.64276859  -1.60510483  -1.41777411
H   -3.14648623  -2.41875044  -1.43971068
H   -1.87230382  -1.81400104  -0.88959018
O   -2.50121543   2.43090571  -2.27879648
H   -2.88612902   3.25776186  -2.56928279
H   -1.57492082   2.63142672  -2.14462698
O    1.35771551  -2.96886741   1.97010025
H    1.48711286  -3.80077715   2.42552792
H    1.37997192  -2.30957110   2.66368865
O   -1.85236122   0.03947654  -3.50974216
H   -2.15087837  -0.60598558  -2.86904097
H   -2.19804490   0.87278291  -3.18984353
