45
Energy:   -616.61472862
O   -0.62021786  -1.83586975   0.26937576
H   -0.05735076  -2.21962819   0.94179076
H   -0.01184992  -1.46907443  -0.37217041
O   -1.06413721   0.42118876   1.74227566
H   -1.96244921   0.68747604   1.54642244
H   -0.95644261  -0.41352054   1.28632161
O    3.53481849  -1.79521710  -1.11921912
H    2.70707264  -1.34057807  -1.27533451
H    3.67654272  -2.31429364  -1.91086654
O    3.73253417  -1.67461741   1.57488197
H    4.41892407  -2.28399810   1.84646241
H    3.72338669  -1.73371344   0.61955175
O   -3.54185782   0.89981167   0.75220187
H   -3.44401108   1.55657794   0.06277026
H   -3.56722851   0.06428248   0.28585528
O   -0.37964762   2.83936463  -1.65882879
H   -0.20821403   2.18769717  -2.33866104
H    0.16898322   2.56833039  -0.92277411
O   -0.19420075   0.69512692  -3.42222495
H   -1.11172566   0.47542091  -3.26064166
H   -0.12784554   0.76307633  -4.37470157
O    1.13925824  -0.51078974  -1.35305462
H    0.72904090  -0.16776024  -2.14695911
H    1.16832360   0.23663637  -0.75577641
O    0.99492298   1.56039489   0.40023709
H    0.22577478   1.28240858   0.89759662
H    1.72439395   1.46366844   1.01240369
O    0.75159673  -0.20683891   3.73854141
H    1.49607590   0.25638833   3.35461025
H   -0.00516491   0.09916048   3.23863339
O    2.89215865   0.84576243   2.28984290
H    3.24867494  -0.00884025   2.04739241
H    3.62389889   1.30192262   2.70542197
O   -3.17334204  -1.47322702  -0.66048893
H   -3.69311986  -2.26794728  -0.54014532
H   -2.30166777  -1.70584916  -0.34064090
O   -3.05413126   2.59221271  -1.37630877
H   -3.45881525   3.44971422  -1.50728157
H   -2.11313776   2.76127882  -1.42299639
O    1.14577780  -2.45185363   2.23973147
H    0.95798257  -1.78930954   2.90456238
H    2.06050827  -2.30055063   2.00180835
O   -2.76802140   0.23896088  -2.80302618
H   -2.96327764  -0.42789015  -2.14468239
H   -3.01270569   1.06564888  -2.38715553
