45
Energy:   -616.73528039
O    0.42120591  -1.52209137  -1.79280957
H   -0.14598414  -1.22067466  -2.50251039
H    0.82780711  -0.72403829  -1.45514315
O   -1.51203614   0.36577428   1.83335699
H   -1.46089692  -0.41177663   1.27745122
H   -2.22837037   0.88016570   1.46120301
O    2.26744545  -2.62077562   0.02336433
H    1.67901100  -2.89581078   0.72645209
H    1.69366458  -2.48600268  -0.73085289
O    3.72195821  -0.35999987   0.34861514
H    3.27096432  -1.20055446   0.26921528
H    4.64546067  -0.59154187   0.44742487
O   -3.32640118   1.73856284   0.24175562
H   -3.33397316   0.99976965  -0.36681578
H   -4.25018585   1.95562124   0.36721232
O    0.16335702   2.27942300  -2.92433158
H    0.31369606   3.06452703  -3.45086903
H   -0.30786096   2.59437966  -2.15297708
O   -1.26756466  -0.03013988  -3.41390468
H   -0.78854739   0.78924566  -3.28988194
H   -1.52340990  -0.02131773  -4.33623717
O    1.51397347   0.75967908  -0.89198579
H    1.55344404   1.32995213  -1.65975045
H    2.42944009   0.57006700  -0.68655945
O    0.52952295   2.06796118   1.24248447
H   -0.18796687   1.51109551   1.54471091
H    0.88918917   1.60605531   0.48517673
O    0.33815528  -0.99151584   3.46940619
H    1.12064763  -0.46527405   3.30506768
H   -0.38508633  -0.45282389   3.14852550
O    2.40170680   0.59184944   2.62401289
H    2.92395291   0.27906524   1.88532696
H    1.83738096   1.26829218   2.24958879
O   -1.34004983  -1.85243629   0.22984861
H   -0.91834979  -2.45515235   0.84233068
H   -0.72120848  -1.77636638  -0.49642999
O   -1.10571513   3.11521986  -0.69348222
H   -1.94876738   2.75488709  -0.41842758
H   -0.52250728   2.95446561   0.04831190
O    0.35423920  -3.20166341   1.95387633
H    0.30981172  -3.96402633   2.53099056
H    0.39136409  -2.45242444   2.54843040
O   -3.12244060  -0.40520367  -1.37026553
H   -2.67725957  -1.05735586  -0.82920804
H   -2.54321581  -0.28140380  -2.12219910
