45
Energy:   -621.35232242
O    0.78037029  -1.34849934  -1.77549063
H    0.39721099  -1.09859883  -2.61630603
H    1.22605350  -0.55819802  -1.47049528
O   -2.02129279   0.27993549   1.64437666
H   -1.89222589  -0.42287459   1.00748453
H   -2.72907168   0.80953335   1.27721592
O    2.08665917  -2.61931115   0.35090085
H    1.34903376  -2.91076429   0.88680725
H    1.69735126  -2.40446534  -0.49675031
O    3.49791533  -0.46071668   1.11951591
H    3.03756079  -1.27106961   0.90126449
H    4.42574466  -0.68643529   1.05306524
O   -3.69868672   1.82247044   0.12635377
H   -3.16087407   2.57211997  -0.12862659
H   -3.69052266   1.24941517  -0.64030968
O    0.72339797   2.12489043  -2.96304854
H    0.04169159   2.54690596  -2.44016121
H    1.36816667   1.82701479  -2.32135135
O   -0.51412204  -0.07968625  -3.88288220
H   -0.05617947   0.73211519  -3.66493985
H   -0.53717746  -0.09277233  -4.83971502
O    1.96796270   0.87514116  -0.77617176
H    1.31726403   1.22461214  -0.16732602
H    2.64960411   0.50725259  -0.21380636
O    0.13346962   1.77327652   1.02650436
H    0.73700592   1.65378891   1.75978363
H   -0.64522522   1.27407444   1.27280395
O   -0.23841512  -0.95655646   3.39263449
H    0.50458262  -0.35574350   3.33597766
H   -0.96884925  -0.47185231   3.00823923
O    1.87753732   0.80437370   2.94921333
H    2.50429879   0.35290497   2.38390112
H    2.41213797   1.17830506   3.64964844
O   -1.38391102  -1.66780437  -0.17181466
H   -1.13161198  -2.32211988   0.47968228
H   -0.61905196  -1.58951619  -0.74198432
O   -1.28441823   2.70878800  -1.17390298
H   -0.77720423   2.53951500  -0.37998078
H   -1.66627054   1.86070204  -1.40011276
O   -0.19275107  -3.15476766   1.83564488
H   -0.43193911  -3.91629111   2.36394685
H   -0.18321926  -2.42579639   2.45592054
O   -2.40701067   0.27074930  -1.88344490
H   -2.22219047  -0.49701590  -1.34251058
H   -1.91513763   0.11968144  -2.69058259
