45
Energy:   -615.15924159
O   -1.42085764  -2.91073961   0.60395383
H   -1.94734174  -3.66516438   0.86832025
H   -0.54480351  -3.09981022   0.94012837
O   -1.71345619  -0.41754557   1.75394739
H   -2.39328016   0.00815338   1.23159538
H   -1.65508349  -1.30332475   1.39586956
O    2.80615611  -1.82568969   0.12506591
H    2.24226359  -1.33350605  -0.47160178
H    2.20066686  -2.34644755   0.65272665
O    4.14712060  -0.06517692   1.66749739
H    5.05624281  -0.05052939   1.36830831
H    3.72059451  -0.71378716   1.10748659
O   -3.24245572   0.48635689  -0.30071761
H   -3.24845852   1.29192344  -0.81768796
H   -2.72030677  -0.12686155  -0.81797524
O   -0.35790732   3.14731646  -1.18287906
H    0.15568761   2.75206652  -1.88731471
H   -0.15343726   2.61903748  -0.41129293
O    0.76822890   1.63720491  -3.23724313
H   -0.09911415   1.31803000  -3.48639221
H    1.19287121   1.85140768  -4.06792233
O    1.02004763  -0.25613432  -1.25763674
H    1.10705245   0.35004312  -1.99330713
H    0.79737372   0.30153143  -0.51221263
O    0.21797516   1.29765103   0.80767597
H   -0.49409782   0.76137670   1.15637895
H    0.85904476   1.33629730   1.51744219
O    0.42153050  -1.09171906   3.41892508
H    1.00803950  -0.33842890   3.34969372
H   -0.41286090  -0.77915923   3.06916916
O    2.02358845   1.09543588   2.87594901
H    2.81001883   0.72013761   2.47982997
H    2.35365175   1.75369160   3.48749581
O   -1.50243180  -1.21124978  -1.61219127
H   -1.56628891  -1.94707344  -1.00332539
H   -0.59525966  -0.91532418  -1.53670224
O   -2.87319410   2.63802380  -1.98870683
H   -3.35133055   3.46024193  -2.09629278
H   -2.01039689   2.90217012  -1.66927055
O    1.03932736  -3.14589549   1.79387572
H    0.87160563  -2.44056548   2.41886441
H    1.48560019  -3.81980762   2.30662795
O   -1.72639129   0.72216304  -3.64638231
H   -1.79870249  -0.07001677  -3.11397825
H   -2.26278237   1.36908980  -3.18812231
