45
Energy:   -623.61911707
O    0.25341453  -1.47455471  -1.81498553
H   -0.37173029  -1.22514670  -2.49558927
H    0.74871184  -0.67453868  -1.63923919
O   -1.46843326   0.35605811   1.80376667
H   -2.18096683   0.91557192   1.49478115
H   -1.52746434  -0.42975087   1.26039624
O    2.06480805  -2.72526719  -0.09271003
H    1.49415842  -3.00011348   0.62496006
H    1.46548399  -2.51516257  -0.80887941
O    3.63070858  -0.56424541   0.22808552
H    3.12521306  -1.37405885   0.15802606
H    4.50233472  -0.79698517  -0.09180810
O   -3.19675660   1.91030072   0.41054409
H   -2.60508836   2.48912299  -0.07021085
H   -3.38721936   1.19959840  -0.20171239
O   -0.21070289   1.98129740  -2.90147528
H   -0.60190331   2.56035159  -2.24734202
H    0.59063860   1.65948280  -2.48853577
O   -1.63410365  -0.25017085  -3.42199495
H   -1.18095935   0.58505022  -3.30667860
H   -1.93047664  -0.23875796  -4.33208541
O    1.66237412   0.77292719  -1.20347942
H    1.24825177   1.20903166  -0.45880001
H    2.46179646   0.38943105  -0.84280438
O    0.52373738   1.96499266   0.95559119
H    1.25741919   1.75700584   1.53411027
H   -0.19314780   1.41385932   1.26953311
O    0.52931191  -0.87658740   3.29502512
H    1.26942075  -0.31343979   3.06845170
H   -0.24100913  -0.39045898   3.00088826
O    2.57886028   0.77625363   2.38875839
H    3.01898027   0.29585290   1.68751565
H    3.28568934   1.04607850   2.97511925
O   -1.48099132  -1.86981729   0.23651976
H   -1.03110120  -2.47449463   0.82660114
H   -0.88066622  -1.76336405  -0.50138900
O   -1.13433110   3.40654361  -0.70910984
H   -1.14803374   4.34619878  -0.52719712
H   -0.51185991   3.04861334  -0.07614271
O    0.24904726  -3.19458101   1.94671000
H    0.38279234  -2.41892897   2.49141912
H    0.11958859  -3.90759029   2.57208195
O   -3.31261803  -0.29592793  -1.21268087
H   -2.89059419  -0.98322135  -0.69716610
H   -2.82618748  -0.28125636  -2.03693927
