45
Energy:   -620.76724091
O   -0.51845646  -1.88610667   0.17456244
H    0.05611821  -2.34623667   0.78642531
H    0.07788046  -1.46948410  -0.44756275
O   -0.98201136   0.28007332   1.76797032
H   -0.87107771  -0.51548744   1.24738541
H   -1.88620745   0.54897037   1.60562608
O    3.56600677  -1.66093863  -1.34746905
H    2.71692526  -1.23204542  -1.45397287
H    4.02645957  -1.48894187  -2.16882901
O    3.61232772  -1.59008710   1.38380620
H    2.85116633  -2.13001880   1.59673566
H    3.70944430  -1.67556358   0.43538963
O   -3.48276730   0.78412323   0.85583385
H   -3.41359838   1.49553315   0.21916797
H   -3.50014635  -0.01218437   0.32496285
O   -0.41131816   2.95893073  -1.47360736
H   -0.23886378   2.35933093  -2.19953532
H    0.15689806   2.65076350  -0.76763629
O   -0.21733535   0.93714436  -3.37527298
H   -1.13172389   0.70052273  -3.21991648
H   -0.15572431   1.04686686  -4.32416544
O    1.14365379  -0.39510139  -1.40179458
H    0.71517958  -0.00451720  -2.16342815
H    1.19556146   0.31696518  -0.76422211
O    1.02146293   1.57736719   0.47105864
H    0.27250209   1.24658960   0.96691719
H    1.76426201   1.48412496   1.06753769
O    0.92522929  -0.52959909   3.59323384
H    1.64723888   0.02715246   3.30175190
H    0.15047268  -0.15854483   3.17097470
O    2.96569703   0.85137942   2.30216926
H    3.27673885   0.01365893   1.95908150
H    3.73524076   1.24158109   2.71662910
O   -3.07676358  -1.46526548  -0.74273644
H   -3.57894110  -2.28007558  -0.73115681
H   -2.20276531  -1.71776568  -0.44507468
O   -3.07256158   2.64358812  -1.14631871
H   -3.49498884   3.49952650  -1.21812779
H   -2.13598439   2.83259022  -1.20405272
O    1.21791262  -2.76969856   2.13634650
H    1.24712313  -3.53560116   2.70973276
H    1.10162712  -2.02886144   2.73121614
O   -2.77736405   0.41351417  -2.75623501
H   -2.93219927  -0.30237574  -2.13998867
H   -3.02521187   1.20266389  -2.27452344
