45
Energy:   -615.30325237
O   -0.79527903  -1.89032710  -0.08017175
H   -1.03899402  -1.15955935   0.48799491
H   -0.49019959  -2.57010882   0.52070694
O   -1.31270775   0.28385346   1.48113287
H   -0.57633118   0.81331138   1.17510067
H   -2.06754175   0.62089266   0.99857502
O    2.84233099  -2.30088378   1.12875998
H    3.62019451  -2.74634169   0.79301090
H    2.52126483  -1.78722928   0.38760722
O    2.45907403  -0.63260474   3.31006602
H    2.69867181  -1.23662864   2.60722900
H    1.54117565  -0.83144642   3.49488052
O   -3.31560529   1.08709883  -0.25056335
H   -2.96963263   1.68192880  -0.91592947
H   -4.21320683   1.38595738  -0.10486884
O    0.46870250   2.74136105  -1.98842370
H   -0.48445778   2.80947432  -2.04390253
H    0.63800570   2.47373592  -1.08512693
O    1.10164251   0.43607787  -3.21884255
H    0.93958585   1.29730284  -2.83379575
H    1.66495606   0.61226072  -3.97241358
O    1.58133390  -0.84137306  -0.82540014
H    1.51603616  -0.50536104  -1.71930393
H    0.74017447  -1.27029211  -0.66820246
O    0.86759759   1.49080638   0.41394264
H    1.23318705   0.70064840   0.01616561
H    1.50474144   1.73914239   1.08372529
O   -0.24292958  -1.22061873   3.52741678
H   -0.68185266  -0.64621911   2.90000665
H   -0.79200176  -1.18459489   4.31064974
O    2.65928527   1.90412458   2.41133495
H    3.29372370   2.37915368   2.94805375
H    2.63820961   1.02404746   2.78716993
O   -2.78702721  -1.14222089  -1.83806188
H   -2.13758818  -1.60844019  -1.31165865
H   -3.10414046  -0.44418349  -1.26498701
O   -2.27414958   2.57287207  -2.31078405
H   -2.08787433   1.82768350  -2.88194722
H   -2.62705287   3.24223475  -2.89699623
O    0.38021028  -3.36576168   1.86541186
H    0.14412112  -2.75439284   2.56306643
H    1.29204924  -3.15734814   1.66207628
O   -1.62685459   0.41389511  -3.74924552
H   -2.03710173  -0.25803758  -3.20478654
H   -0.68681657   0.26931901  -3.64127274
