45
Energy:   -615.25611421
O   -1.33273390   2.58708890   0.39941615
H   -1.85794635   3.38575149   0.34919866
H   -0.48458961   2.83403634   0.03076988
O   -0.33477220  -1.64126790  -0.74882590
H    0.49435479  -1.34895106  -0.37023489
H   -0.13113014  -1.81430844  -1.66796611
O    1.98193815  -0.89161159   0.47305842
H    1.72397357  -1.42142588   1.22736801
H    2.13578979  -0.01864480   0.83429312
O   -3.10741332  -1.04752353   1.59108536
H   -2.92670020  -0.57108934   0.78078598
H   -4.04766449  -0.93523367   1.73090869
O    1.12860684   3.15431758  -0.49510269
H    1.30390051   2.71017472  -1.32470567
H    1.66613828   2.68795420   0.14505120
O    2.54341140  -0.71271354  -2.28559926
H    2.55322545  -0.80483335  -1.33289286
H    2.30956512   0.20325864  -2.43574163
O   -1.00489833   0.68207024  -3.14525073
H   -1.60951969   0.57437572  -2.41103907
H   -0.72253709  -0.20789006  -3.35614083
O    1.44737099   1.76460230  -2.82183396
H    1.64154258   2.26674660  -3.61327590
H    0.55281788   1.44945009  -2.95100696
O    2.30675078   1.63869346   1.48414435
H    1.51733983   1.76598341   2.01031874
H    3.01645081   1.97609351   2.03069620
O   -1.41560146  -3.23517374   1.18952217
H   -2.14328517  -2.65871748   1.42277402
H   -1.06566996  -2.86417666   0.37949689
O    0.75071746  -2.34133223   2.50905022
H    1.04530703  -2.98024371   3.15808100
H    0.00935833  -2.76401929   2.07551345
O   -1.05042147  -0.41657050   3.36143356
H   -1.80698213  -0.62955051   2.81509362
H   -0.39695493  -1.07832902   3.13496286
O   -2.26818448   0.24582219  -0.67671327
H   -1.53687510  -0.37157510  -0.66125335
H   -1.91236926   1.04888375  -0.29629309
O   -0.01792758   2.01515632   2.75599930
H   -0.39479633   1.19886380   3.08443242
H   -0.58204673   2.26217807   2.02320896
O    0.33115100  -1.77257162  -3.39260685
H    1.19053388  -1.45802759  -3.11197369
H    0.52371340  -2.48154907  -4.00620488
