10
Energy:   -254.10491450
O   -0.37544695   1.72196368   0.72121380
H    0.14191411   1.31301561   0.02743368
H   -1.25767979   1.37038877   0.60166400
O    0.78259091  -1.27198252   1.15544520
H    0.47215405  -1.49479201   0.27782527
H    0.81641370  -0.31540537   1.16237469
C   -0.22315038  -0.43992837  -1.74433720
O   -1.44892737  -0.02433694  -1.29521257
O    0.02065680  -1.71108491  -1.29509572
O    0.74644889   0.40560591  -1.27239522
