10
Energy:   -256.01888062
O    1.82956850  -0.02084263  -0.36515660
H    1.39276283  -0.50369525   0.33647435
H    1.16187869   0.58104470  -0.69402405
O   -0.66226959  -1.29092050   1.14966949
H   -0.80579178  -1.56408942   0.24357238
H   -0.68997488  -0.33460454   1.11927129
C   -1.02678056   1.34714550  -0.65510876
O   -1.62769959   0.19562471  -1.09083180
O    0.08626746   1.59656525  -1.41406375
O   -0.66195205   1.20284637   0.65784902
