10
Energy:   -254.06812328
O   -1.00023582  -1.25693024   1.06217198
H   -0.39695296  -1.48670978   0.35543086
H   -0.78983213  -0.34676670   1.27089301
O    0.63477235  -0.53689782  -1.70073775
H   -0.06171836   0.04202850  -2.01053905
H    0.94805863  -0.12568704  -0.89513906
C    0.41777521   1.59580089   0.75160101
O   -0.22993705   1.91374066  -0.41301975
O    1.28892117   0.56351716   0.52226765
O   -0.50049449   1.21788556   1.69592139
