10
Energy:   -254.95674775
O    0.04178106  -1.80180188  -0.72232560
H   -0.55372048  -1.20243196  -0.27247512
H    0.41912452  -1.27910792  -1.42988110
O    1.18254599   0.55187152   1.42281338
H    0.83375877  -0.31864245   1.23101986
H    0.61327590   1.15040483   0.93915928
C   -1.20705589   1.14932185  -0.51559377
O   -0.57739300   0.74926065  -1.66469519
O   -0.43246908   2.07671827   0.13020025
O   -1.39872557   0.06551655   0.30074502
