10
Energy:   -254.16337716
O    0.56572687   1.74638335  -0.19220709
H    0.16771721   1.48405052   0.63785413
H    0.72786529   0.92243403  -0.65160942
O    0.10368520  -1.08650490  -1.54530988
H    0.50704402  -1.04623987  -0.67818115
H   -0.82492766  -0.91748766  -1.38611442
C   -0.48187793  -0.60410646   1.62631929
O   -1.52438887  -0.88426581   0.78273168
O   -0.51538546   0.72209560   1.96861171
O    0.70256247  -0.88397068   0.99659144
