10
Energy:   -255.57836570
O    1.25264832   1.40958763  -0.27799127
H    0.79468345   0.76271909  -0.81470452
H    0.59819630   1.70151750   0.35659628
O    0.30398821  -1.11006747   1.36304959
H   -0.39678662  -1.26355585   0.72934003
H    0.83272959  -0.41435865   0.97234046
C   -1.40424827  -0.34528895  -1.09450299
O   -1.55437734   0.80755884  -0.36968465
O   -1.71189751  -1.42313884  -0.30666396
O   -0.10714751  -0.44846778  -1.52422844
