10
Energy:   -253.36451069
O    1.81679985  -0.63486393  -0.19279993
H    1.26821050  -0.67504485  -0.97616898
H    1.32423541  -0.08578205   0.41721745
O   -0.88127280   0.70630571   1.74266544
H   -1.15492826  -0.20843829   1.67493093
H   -0.73178408   0.97972739   0.83760989
C   -0.87651771   0.04904608  -1.42099469
O   -1.24212782  -0.91743016  -0.52143296
O    0.13107732  -0.42692906  -2.21805096
O   -0.44004437   1.15891891  -0.74612172
