10
Energy:   -254.24229924
O    0.42996152  -0.38381276   1.80193842
H   -0.01378234  -0.96084029   1.18035781
H    0.87425238   0.26304301   1.25383707
O    0.09732744   1.75639952  -0.54516828
H   -0.84151730   1.59276128  -0.45558630
H    0.47013215   0.90209695  -0.76291953
C   -0.32935675  -1.34278120  -1.13461319
O   -1.33592477  -0.48336375  -1.48842224
O   -0.64545246  -1.95264106   0.05082059
O    0.83946108  -0.64207863  -0.99087388
