52
Energy:  -1529.04722104
O    1.72821240   0.76387195  -2.99138219
H    1.44499805   0.11382393  -2.34837437
H    1.02731175   1.41573205  -2.99835024
O   -0.16650100  -3.19494313  -1.78856147
H   -0.77296975  -2.73965796  -2.37263587
H    0.36486869  -2.49796959  -1.40371605
O   -2.92592132  -0.48231124  -0.35865414
H   -2.98657572  -0.24669614   0.56710955
H   -2.01252642  -0.31357725  -0.58989091
O   -1.83065703  -1.37245557  -2.97231619
H   -1.19891401  -0.83489200  -2.49465730
H   -2.62064517  -1.35130017  -2.43222079
O    2.30777425   1.63132179  -0.48200309
H    2.35957244   1.41841399  -1.41378582
H    1.63278838   1.04559028  -0.13915544
O    1.70952564   0.31438001   2.99100432
H    1.22337971   0.38313387   2.16931892
H    1.74953947  -0.62541305   3.16826048
O   -0.40342430   2.47068916  -2.36607029
H   -0.43203539   1.60528172  -1.95804674
H   -0.02853898   3.04040787  -1.69442050
O   -2.69642425   0.22903607   2.25711909
H   -2.03671256  -0.45821302   2.35039832
H   -2.21248224   0.98171074   1.91724733
O    3.07383341  -1.70209237   0.75899753
H    3.48357075  -0.87284832   1.00537418
H    2.35037228  -1.45101744   0.18471779
O    3.94220150   0.78726799   1.53043919
H    3.50291657   1.12537242   0.75008926
H    3.24151808   0.68338440   2.17424257
O   -2.12716662  -3.08329939   0.13256011
H   -1.39028665  -3.19045173  -0.46890321
H   -2.45008591  -2.19864587  -0.03873825
O   -0.78048090  -1.72183399   2.10884579
H   -0.33524920  -1.10800291   1.52471226
H   -1.20925833  -2.34412265   1.52136083
O   -1.31330874   2.14504453   0.88444977
H   -1.90503679   2.19621469   0.13380247
H   -0.71573631   1.42852924   0.67056928
O   -2.96357981   2.16789431  -1.30446910
H   -3.00611542   1.23033050  -1.11632907
H   -2.15539270   2.27561431  -1.80592882
O    0.62884867   3.73854347  -0.18524758
H    1.31999971   3.07993200  -0.25433457
H   -0.06783293   3.30456956   0.30722907
O    1.70813211  -2.42458539   3.00108197
H    0.79862819  -2.28769819   2.73594733
H    2.21531263  -2.28018837   2.20223952
C    0.08943640  -0.53056984  -0.38475736
O    1.22202066  -0.99167377  -1.00249067
O   -0.63362073   0.22984759  -1.26569578
O    0.43894020   0.23272360   0.69829869
