52
Energy:  -1521.57345394
O   -1.64687330   0.16851582  -2.41016418
H   -1.37268519   0.26994353  -1.49870099
H   -0.84835352  -0.08251593  -2.87447126
O    0.31025775  -4.38408116   0.23902055
H   -0.23515944  -3.99349797  -0.44376544
H    1.08787223  -3.82695160   0.27299443
O   -2.03089412   2.85072266  -2.34187943
H   -2.05337736   3.00980687  -1.39825951
H   -2.00230654   1.89747452  -2.42393183
O    1.03125683  -0.09910966  -2.90729015
H    1.07205734   0.85498877  -2.84199576
H    0.86419918  -0.39399603  -2.01209988
O   -1.69077496   3.16106965   0.35759030
H   -0.87007712   3.64064977   0.24494133
H   -1.44439015   2.24016145   0.27125107
O    2.53474808   0.59838384   3.02736062
H    2.94390595   0.41251128   2.18221384
H    1.81649101   1.19615355   2.81997207
O    0.67787641   2.55772585  -2.09220807
H    0.73165548   1.91265053  -1.38707157
H   -0.26052121   2.66845538  -2.24511565
O   -2.82725511  -0.76318241   1.11006698
H   -2.28355737  -1.45938491   1.47874937
H   -2.20255711  -0.15275616   0.71844977
O    2.24543856  -2.45398695   0.48881054
H    2.12372358  -2.34497744   1.43196176
H    1.61426053  -1.85219045   0.09423847
O    3.51129315  -0.04162992   0.54841728
H    2.72285599   0.39430781   0.22506455
H    3.31212625  -0.97573812   0.48512210
O   -1.14854593  -2.90110315  -1.49470714
H   -2.04503474  -2.56618082  -1.47555789
H   -0.61013037  -2.16197498  -1.21181125
O   -0.64353480  -2.28509808   1.73149608
H   -0.42378780  -3.10253137   1.28456664
H   -0.41072947  -1.59929998   1.10562510
O    0.53098479   2.33963751   2.12148979
H   -0.40248913   2.54367294   2.17830389
H    0.59534628   1.70759640   1.40551949
O   -3.52146678  -1.54645380  -1.40651894
H   -2.94660024  -0.95219698  -1.88882501
H   -3.38857604  -1.31541711  -0.48717464
O    0.81264263   4.21851740   0.09820514
H    0.93874523   3.58307120   0.80285974
H    0.90113140   3.70628686  -0.70554946
O    1.68283138  -2.01061813   3.12776018
H    0.79777658  -2.02532573   2.76348895
H    1.91753550  -1.08292156   3.15067048
C    0.20063935   0.13267245   0.23943512
O    1.20104748   1.01013118  -0.08646074
O    0.32037933  -0.99958901  -0.52263123
O   -1.01525756   0.71787608   0.00087356
