52
Energy:  -1525.44903499
O    1.51471478   0.60387428  -2.94405759
H    1.33499216  -0.00158290  -2.22478488
H    0.79876267   1.23820133  -2.90836970
O   -0.20597141  -3.25724431  -1.70194989
H   -0.49617800  -2.82634419  -2.50590080
H    0.22815188  -2.56577461  -1.20231156
O   -3.16965518  -0.68485319  -0.29611851
H   -3.20668010  -0.41523226   0.62157727
H   -2.26072591  -0.53229635  -0.55458678
O   -0.67227712  -1.18201160  -3.49125656
H   -0.81569197  -0.87453813  -2.59620120
H    0.16707137  -0.79831276  -3.74522736
O    2.13003338   1.67843549  -0.46376037
H    2.16550324   1.42289698  -1.38553789
H    1.49095731   1.08199545  -0.07379510
O    3.73614080   0.68848554   3.49882428
H    4.01217176   0.69195461   2.58229457
H    2.85047018   0.32583683   3.48135098
O   -0.63663132   2.19325594  -2.27418151
H   -0.65344927   1.34648725  -1.82816382
H   -0.30375079   2.80419954  -1.61678489
O   -2.97272744   0.11894318   2.30353785
H   -2.32265144  -0.58052636   2.36968464
H   -2.48952520   0.86232397   1.94279909
O    2.73873679  -1.85386864   1.04534268
H    2.31250756  -1.52817388   1.83811214
H    2.15725335  -1.58709141   0.33334636
O    4.20792355   0.41887927   0.79293768
H    3.81998208  -0.45470067   0.84384306
H    3.54476440   0.95069426   0.35290974
O   -2.31398713  -3.27031746   0.09123259
H   -1.56976847  -3.33137540  -0.50763498
H   -2.69898675  -2.41311851  -0.09102298
O   -1.09090690  -1.83662263   2.13006248
H   -0.62178541  -1.25867984   1.52828262
H   -1.49595973  -2.49415538   1.56454082
O   -1.59083343   2.00738723   0.91207439
H   -2.17252618   1.99830852   0.15195402
H   -0.94616630   1.32389686   0.72910701
O   -3.22049974   1.91040070  -1.29657859
H   -3.28006142   0.97662218  -1.09473225
H   -2.40279269   1.99838675  -1.78631880
O    0.29462980   3.65568112  -0.17426578
H    1.03123544   3.04573036  -0.21431641
H   -0.37519640   3.19047437   0.32688030
O    1.28099751  -0.55266641   2.98599010
H    0.58338261  -1.18715082   3.15029115
H    1.02992111  -0.12680906   2.16633285
C    0.00224298  -0.63312168  -0.24993636
O    1.14993331  -1.01175610  -0.89522798
O   -0.85401318  -0.04945927  -1.14618541
O    0.30968999   0.26383665   0.73936759
