52
Energy:  -1522.47276996
O    0.94446977   0.19761955  -3.81548639
H    1.12314221  -0.19652690  -2.96169684
H    0.50481951   1.02304220  -3.61148408
O    0.05799135  -2.94168776  -1.88165417
H   -0.57132586  -2.52965534  -2.47361783
H    0.46686769  -2.21017822  -1.41911145
O   -2.88430972  -1.16749390   0.41721956
H   -2.76547932  -0.94618512   1.34087188
H   -2.14519213  -0.75128565  -0.02629790
O   -1.41389219  -1.06009856  -3.22533637
H   -1.35711616  -0.67527603  -2.35073935
H   -0.63949831  -0.73220292  -3.68253482
O    1.79566168   2.19859642  -0.51348940
H    1.35425804   1.35230027  -0.44153454
H    1.19653863   2.81795192  -0.09673746
O    2.14287000   1.01540492   2.46779533
H    2.88938274   1.15823702   1.88594519
H    1.41570182   0.81165397   1.87962544
O   -0.16490670   2.25145890  -2.36773331
H   -0.52449064   1.48768749  -1.91652995
H    0.71479575   2.35276718  -2.00428858
O   -2.29825124  -0.37020035   2.94945255
H   -1.53247332  -0.92822986   2.81373559
H   -2.06280876   0.46354233   2.54242452
O    3.05598333  -1.33060413   0.30020758
H    2.25899367  -1.00061989  -0.11470173
H    2.79456461  -1.52697683   1.19983520
O    4.07896149   1.17652337   0.53534723
H    3.86977623   0.25038345   0.41394620
H    3.36717943   1.64279380   0.09695238
O   -1.51801675  -3.53107755   0.28827286
H   -0.93908038  -3.40161960  -0.46292962
H   -2.08627896  -2.76081165   0.28886543
O   -0.21692709  -1.93873012   2.12320800
H   -0.03567170  -1.19946465   1.54280736
H   -0.58827335  -2.60889103   1.54943264
O   -1.68359288   1.82507003   1.42765173
H   -2.38730479   1.74999680   0.78314773
H   -0.98811202   1.26040112   1.09047634
O   -3.46472908   1.34860930  -0.58651539
H   -3.73919664   0.51441847  -0.20569381
H   -2.59281239   1.17512431  -0.94133377
O   -0.47329065   3.76016893  -0.06920094
H   -0.87210648   3.15333507   0.55444195
H   -0.53388746   3.31170752  -0.91267129
O    2.35266574  -1.63830375   2.95096338
H    2.34515890  -0.68170352   2.91792554
H    1.45734063  -1.89316459   2.72809402
C   -0.06211480  -0.36696820  -0.36369439
O    1.02402283  -0.39957863  -1.19808039
O   -1.09372060   0.28858001  -0.98268129
O    0.26970928   0.29071314   0.79178311
