52
Energy:  -1521.07148988
O    1.47298666  -0.34051057  -2.63731184
H    1.27073995  -0.51222384  -1.71761479
H    0.73617165   0.18368593  -2.95124420
O   -0.80689736  -3.05171282  -0.81730831
H   -0.75906139  -2.09657478  -0.77662814
H    0.06624694  -3.34694630  -0.55906799
O   -2.86720756   0.03958203   0.56981536
H   -2.57706772   0.45591915   1.38142741
H   -2.05855662  -0.14254353   0.09112362
O    0.64996500  -2.87880992  -3.14720074
H   -0.04937269  -2.94102960  -2.49659536
H    0.95803672  -1.97484021  -3.08268372
O    2.27812191   1.68887798  -0.94006304
H    2.35895704   1.04637294  -1.64496361
H    1.58364656   1.34357462  -0.37908050
O    1.51237160   1.35067631   2.78327867
H    0.69085104   1.47809744   3.25772538
H    1.24293350   1.13578079   1.89027539
O   -0.80668022   1.18190831  -2.76709885
H   -0.74292914   0.61041261  -2.00187972
H   -0.35263756   1.98329721  -2.50661289
O   -1.30171294   0.80005339   2.72073552
H   -1.23602596  -0.09827700   3.04464844
H   -0.78620327   0.80265345   1.91421530
O    1.60047151  -1.38998591   2.60899194
H    1.72038949  -0.48894376   2.90894956
H    1.39692658  -1.30768402   1.67731190
O    3.62070134   2.52721924   1.36134679
H    2.97468587   2.19553193   1.98494874
H    3.28622850   2.26102881   0.50489923
O   -2.50623950  -2.57761874   1.28845339
H   -1.90721619  -2.85314365   0.59455935
H   -2.73371491  -1.67514453   1.06478603
O   -0.97438965  -1.81180806   3.44198761
H   -0.07235949  -1.75064485   3.12761122
H   -1.46725353  -2.14747668   2.69322622
O   -1.31671354   2.99000404  -0.02355095
H   -2.05308383   2.62184830  -0.51186642
H   -0.77036730   2.23437280   0.19268751
O   -3.21618265   1.73962656  -1.54840294
H   -3.21022855   1.10571292  -0.83122103
H   -2.45948198   1.50255811  -2.08453212
O    0.49256465   3.44645277  -1.96105997
H    1.20607809   2.90617705  -1.62160072
H   -0.15788552   3.45382097  -1.25885478
O    1.92493047  -3.40145665  -0.76323381
H    1.68232123  -3.31227391  -1.68487313
H    1.82725227  -2.52003157  -0.40298302
C    0.07783755  -0.33535341   0.24953517
O    1.28742365  -0.91070876  -0.03826004
O   -0.75749875  -0.46527641  -0.82862626
O    0.25976955   0.99368847   0.52940767
