52
Energy:  -1535.90959845
O    1.54566950   0.72735477  -2.99606554
H    1.36974151   0.11759169  -2.27949721
H    0.83406181   1.36574874  -2.94811253
O   -0.05460047  -3.16117170  -1.79273890
H   -0.39418576  -2.71472268  -2.56836572
H    0.38251230  -2.47265080  -1.29163688
O   -3.02675923  -0.63830970  -0.24146200
H   -3.03782384  -0.40428425   0.68662286
H   -2.12961918  -0.45964789  -0.52333349
O   -0.64799384  -1.06307600  -3.51377064
H   -0.77046685  -0.75703865  -2.61511979
H    0.18383170  -0.67667470  -3.78761760
O    2.15223329   1.74249639  -0.48541598
H    2.22203125   1.50964151  -1.41123384
H    1.51479206   1.12336894  -0.12963272
O    1.60688535   0.38298883   3.04647680
H    1.11923528   0.43267032   2.22430833
H    1.68770372  -0.55463702   3.22128528
O   -0.60990964   2.33266798  -2.30044244
H   -0.61371362   1.47996363  -1.86557156
H   -0.27980651   2.93882079  -1.63723618
O   -2.74519563   0.08899614   2.37101991
H   -2.06249452  -0.57973726   2.42530327
H   -2.30231569   0.85499458   2.00586845
O    3.09817079  -1.54449457   0.82223657
H    3.45552583  -0.69346383   1.07576350
H    2.36065105  -1.33410710   0.24949440
O    3.79602104   1.00264440   1.57401855
H    3.34042165   1.30913139   0.78997342
H    3.09975102   0.85602277   2.21428569
O   -2.08353942  -3.20218712   0.09243697
H   -1.36656016  -3.24758516  -0.54010678
H   -2.49151580  -2.35126023  -0.06790809
O   -0.79352523  -1.81448591   2.12280558
H   -0.37690933  -1.17222227   1.54820967
H   -1.21192690  -2.43481509   1.52584360
O   -1.50662169   2.05517635   0.93029778
H   -2.11483545   2.04776080   0.19120855
H   -0.87109103   1.36947748   0.72499388
O   -3.17672259   1.95909819  -1.24576825
H   -3.20267879   1.02437619  -1.04118845
H   -2.37337999   2.07131782  -1.75398010
O    0.33839652   3.73714248  -0.16938873
H    1.06945682   3.12232133  -0.23085134
H   -0.32775621   3.26841592   0.33337145
O    1.73452170  -2.35504467   3.03949863
H    0.82149675  -2.27892816   2.76232798
H    2.24146032  -2.17616813   2.24750856
C    0.07028623  -0.55489267  -0.29723090
O    1.22540576  -0.90867155  -0.94337156
O   -0.76172596   0.09331309  -1.17169290
O    0.36961711   0.27621431   0.75035796
