52
Energy:  -1521.10128583
O    1.10531960   1.27282448  -2.76264023
H    0.90461161   0.61672040  -2.09520065
H    0.46514129   1.96896293  -2.61500946
O   -0.72762129  -2.28965837  -2.32487003
H   -1.48161215  -1.74021317  -2.53897189
H   -0.18656122  -1.74317095  -1.75492500
O   -3.15935726  -0.38386254   0.24150035
H   -3.12306739  -0.24652169   1.18810079
H   -2.30625253  -0.08859890  -0.07671899
O    0.62660717  -0.95964051  -4.39556486
H    0.21453144  -1.51753299  -3.73588204
H    0.82954282  -0.14795295  -3.93057854
O    2.06369494   1.84343624  -0.24875741
H    1.98598363   1.78903108  -1.20124514
H    1.41890570   1.21743046   0.08078082
O    2.23730213   0.34028341   2.72029891
H    2.99269559   0.36318926   2.13285710
H    1.47881168   0.36889886   2.13711348
O   -0.74017525   3.01574073  -1.63423953
H   -0.83692745   2.10910072  -1.34290679
H   -0.28419149   3.45176413  -0.91438242
O   -2.63452350   0.07844457   2.87048918
H   -1.99508650  -0.62505373   2.75894401
H   -2.20632580   0.85224834   2.50428391
O    2.65489528  -2.06301298   0.43614580
H    1.96475981  -1.56725039  -0.00449503
H    2.30934361  -2.22760581   1.31349129
O    4.06912033   0.24811496   0.69303851
H    3.68682798  -0.61687408   0.54512511
H    3.44468972   0.85708581   0.29873816
O   -2.21157332  -2.94685610  -0.00908120
H   -1.60074856  -2.85427195  -0.74021261
H   -2.59705464  -2.07670403   0.09324857
O   -0.82340494  -1.85682742   2.15034756
H   -0.42595526  -1.15105812   1.64029336
H   -1.24305554  -2.41753198   1.49786336
O   -1.45842613   2.12072323   1.45528795
H   -0.82095764   1.44909540   1.21283828
H   -2.01241844   2.21658713   0.68060448
O   -2.66918864  -0.39073080  -2.56299284
H   -3.29832626  -0.54143568  -1.85751021
H   -1.92755031   0.03777451  -2.13569009
O    0.49505575   3.86849243   0.65139618
H   -0.18800653   3.34540410   1.07096306
H    1.16179742   3.23134859   0.39500755
O    1.72117999  -2.29808793   3.02497802
H    1.97582206  -1.37573473   3.05054813
H    0.79960360  -2.28555073   2.76657596
C   -0.16858742  -0.28705419  -0.17206903
O    0.89052316  -0.65091371  -0.96127713
O   -0.96041528   0.60080597  -0.85163637
O    0.29757514   0.30083773   0.97460257
