52
Energy:  -1523.24531141
O    1.45281783   0.76970026  -3.32382497
H    1.52616485   0.31259378  -2.48602683
H    0.77138318   1.42636963  -3.18007522
O    0.30765768  -3.02988948  -1.75542076
H   -0.04757978  -2.57336077  -2.51806073
H    0.62851283  -2.33109792  -1.18535570
O   -2.99197040  -0.86917927  -0.29756034
H   -3.08191095  -0.62761364   0.62427945
H   -2.09977154  -0.60982644  -0.52766717
O   -0.59948352  -1.07460817  -3.43973571
H   -0.74529299  -0.78354526  -2.53959470
H    0.16353221  -0.57626970  -3.73247727
O    2.08953764   2.12519938   0.14189608
H    1.96026123   2.08778958   1.08958800
H    1.63872470   1.34988546  -0.19260036
O    2.00057734   0.83454567   2.64432485
H    2.82179085   0.66184664   2.18387370
H    1.31865778   0.58761117   2.01963220
O   -0.67901885   2.22951372  -2.29287315
H   -0.59790439   1.39307011  -1.83459989
H   -0.42310962   2.88467134  -1.64363451
O   -2.89809924  -0.07782856   2.30974405
H   -2.19630977  -0.72633069   2.36603240
H   -2.47732017   0.69994974   1.94335936
O    2.80472365  -1.83680903   0.86343623
H    2.18358782  -1.34662869   0.32478480
H    2.36438749  -1.93583524   1.70755099
O    4.15891313   0.50001654   0.98964961
H    3.58515128   1.05130551   0.45756912
H    3.81830877  -0.38651383   0.87013222
O   -1.84662172  -3.35608358  -0.05036628
H   -1.09334406  -3.30701949  -0.63892156
H   -2.32215003  -2.53904987  -0.20056813
O   -0.86727461  -1.89291136   2.08011878
H   -0.47162361  -1.19063965   1.56387603
H   -1.16388074  -2.53038221   1.43059005
O   -1.69592116   1.93716723   0.89709791
H   -2.26529983   1.87720174   0.12999692
H   -1.01476754   1.28276200   0.74212894
O   -3.25263306   1.70431513  -1.34964725
H   -3.23983331   0.77182875  -1.13392249
H   -2.43037933   1.85400222  -1.81625675
O   -0.01111839   3.79238264  -0.16465382
H   -0.65265524   3.24787923   0.29161186
H    0.80188203   3.28861427  -0.12618856
O    1.56709570  -1.78641817   3.33635269
H    1.71776385  -0.84522060   3.24872800
H    0.69675839  -1.92590673   2.96313994
C    0.24440747  -0.47459037  -0.26148026
O    1.46052686  -0.27587081  -0.86024777
O   -0.74811114   0.01028815  -1.07197297
O    0.21486381   0.18249837   0.94066023
