52
Energy:  -1528.44588858
O    1.46110748   0.08450899  -3.01805983
H    1.29974997  -0.34152371  -2.17622152
H    0.79418097   0.76897276  -3.07237597
O   -0.05005608  -3.24968719  -1.34902728
H   -0.48076372  -2.87021410  -2.11500570
H    0.40175088  -2.51266557  -0.93805105
O   -2.90520769  -0.51534129   0.25776903
H   -2.90729167  -0.01090509   1.07126250
H   -2.02181556  -0.40166198  -0.09284073
O   -0.91479366  -1.44106486  -3.19824191
H   -0.99269036  -1.01486709  -2.34470842
H   -0.05970156  -1.16428184  -3.52754499
O    2.33189766   1.57197000  -0.87841407
H    2.26749965   1.15010454  -1.73521876
H    1.66986059   1.13293919  -0.34438157
O    2.24027604  -1.68178137   1.74518561
H    2.22035508  -0.90780682   2.30803408
H    1.75060811  -1.42336020   0.96436831
O   -0.54611097   1.91346882  -2.58097196
H   -0.55626024   1.18794219  -1.95668041
H   -0.14499721   2.63778063  -2.10064707
O   -2.71806964   1.12689063   2.45257308
H   -2.01867255   0.56293022   2.78276122
H   -2.27797199   1.72830140   1.85186433
O    4.11726534   0.02392396   0.51954833
H    3.57978440  -0.72509433   0.77707054
H    3.55056827   0.54019151  -0.05364804
O    2.47053403   0.98474795   2.49256839
H    1.68240248   0.95665841   1.95008201
H    3.18916150   0.82751160   1.88012808
O   -1.88415472  -3.10664343   0.67907790
H   -1.26888221  -3.18095860  -0.05040742
H   -2.25666271  -2.22936933   0.59042232
O   -0.55761682  -0.40391483   2.95376856
H   -0.21524774  -0.12452014   2.10467853
H   -0.43048541  -1.35258572   2.96341184
O   -1.31468765   2.45794683   0.53173976
H   -1.95803765   2.26178711  -0.14932852
H   -0.71314836   1.71356206   0.51519775
O   -3.11184804   1.75754072  -1.40966389
H   -3.11234972   0.90834773  -0.96795941
H   -2.33408738   1.73755695  -1.96726667
O    0.63603674   3.71025677  -0.91404806
H    1.32717227   3.05077299  -0.85367706
H   -0.04032826   3.40511134  -0.30935929
O    0.00958610  -3.06027365   2.69175000
H   -0.62092979  -3.10271866   1.97280634
H    0.79642204  -2.68239638   2.29890167
C    0.13026140  -0.45317384  -0.02116737
O    1.23203238  -1.02694103  -0.59896518
O   -0.73256600  -0.03468381  -0.99968346
O    0.51911256   0.62106238   0.73553041
