52
Energy:  -1522.82755987
O    1.09530170   0.74903948  -3.02245194
H    0.97104172   0.15899656  -2.27905389
H    0.38095036   1.38187181  -2.94857874
O   -0.80569606  -2.56116060  -2.13830868
H   -1.58440935  -2.02287845  -2.28004718
H   -0.20999740  -1.99647302  -1.64586285
O   -3.06581377  -0.57790747   0.19378972
H   -2.96991611  -0.35475981   1.11966261
H   -2.20690139  -0.39542080  -0.18726142
O    0.25782973  -1.47281625  -4.44461977
H   -0.04534681  -1.97722162  -3.68970847
H    0.59513174  -0.65919305  -4.06981784
O    2.07443041   1.73263516  -0.64685014
H    1.99967481   1.50286253  -1.57305097
H    1.48091880   1.12831720  -0.20100753
O    1.98568622   0.30398658   2.90981954
H    2.06413370  -0.63882256   3.05538314
H    1.39807900   0.38271781   2.15832037
O   -0.99295114   2.34516483  -2.15862716
H   -0.92328840   1.49248077  -1.72931510
H   -0.55268071   2.95078366  -1.56228864
O   -2.45972050   0.10052723   2.75767009
H   -1.78318223  -0.57599496   2.72859192
H   -2.05051663   0.86659088   2.35526416
O    3.11846279  -1.64393116   0.48845215
H    2.31643320  -1.41660634   0.01802275
H    3.52603717  -0.80138664   0.68903556
O    3.96354238   0.88628758   1.14839021
H    3.35772537   0.74819187   1.87650227
H    3.41442937   1.22135273   0.43956153
O   -2.09219088  -3.13003487   0.31373437
H   -1.48751462  -3.08804626  -0.42709990
H   -2.53255793  -2.28014823   0.31254897
O   -0.57519391  -1.82987777   2.27312055
H   -0.21411832  -1.17908382   1.67118742
H   -1.04796482  -2.44207449   1.70926357
O   -1.38109487   2.07565251   1.20322219
H   -2.07939182   2.08125947   0.54856062
H   -0.78255521   1.38871460   0.90979686
O   -3.34333521   2.02030172  -0.72632453
H   -3.33779562   1.08583530  -0.51902360
H   -2.61449691   2.13517521  -1.33610372
O    0.28976691   3.72421009  -0.18827622
H   -0.29948851   3.26949619   0.41359185
H    1.01067497   3.11021194  -0.32802488
O    2.03333684  -2.43763374   2.85480205
H    1.09518760  -2.33033403   2.69797530
H    2.44021699  -2.26070695   2.00664092
C   -0.00593581  -0.53541757  -0.19859171
O    1.04049905  -0.93836514  -0.98571667
O   -0.91595344   0.14633291  -0.96291035
O    0.46032222   0.28350358   0.79627100
