52
Energy:  -1521.29631804
O    0.08248990  -3.10610394  -1.11172235
H   -0.59855348  -2.73619879  -1.67348916
H    0.21147163  -2.44978124  -0.42700629
O   -0.06524255   0.64010425   3.00906310
H   -0.79155407   0.01810023   2.96646725
H    0.37626509   0.55171849   2.16437924
O    2.80353574   2.28643829  -1.52750002
H    2.03749207   2.60117959  -1.04755538
H    3.09190800   1.51488159  -1.03987973
O    3.36029751  -0.10083461  -0.25897899
H    3.15781482  -0.73545329  -0.94635934
H    2.51199663   0.10828601   0.13202745
O    2.51790363  -1.95116354   1.66170485
H    3.06847590  -1.37376064   1.13283066
H    1.62254435  -1.72971806   1.40572532
O    1.99103907  -0.82697456   4.10601100
H    1.27500791  -0.25733830   3.82486023
H    2.26111066  -1.28391237   3.30945527
O   -2.23665361  -1.63088349  -1.74166524
H   -1.58698524  -1.04788634  -1.34888391
H   -2.49867889  -2.21329028  -1.02865967
O   -3.37234793   0.94332874  -1.81363390
H   -3.17397890   1.16438805  -0.90368095
H   -3.08198413   0.03623280  -1.90901568
O   -2.05866578  -1.06021711   2.09183635
H   -1.22277542  -1.17396888   1.63953150
H   -2.42065996  -0.25243949   1.72757356
O    0.38070755   2.88123722  -0.32644499
H    0.53190885   1.99598960   0.00477500
H   -0.22772060   2.76383974  -1.05600983
O   -2.34377411  -3.27908945   0.43494860
H   -1.43568183  -3.36571004   0.14495354
H   -2.32545265  -2.56385066   1.07081780
O    0.97209846   0.66282991  -2.71816746
H    1.66458627   1.26083620  -2.43695410
H    0.55209698   0.38263653  -1.90495022
O   -0.90009061   3.08465745   2.10182296
H   -0.42440273   3.14773164   1.27358716
H   -0.56195775   2.28904256   2.51279130
O    2.32948804  -1.72492697  -2.32319903
H    1.68809318  -2.23523269  -1.82879782
H    1.86781065  -0.91911293  -2.55503856
O   -1.14576777   2.43496598  -2.63472118
H   -0.45422593   1.78913764  -2.77931538
H   -1.90878365   1.91646627  -2.37938480
O   -2.46194272   1.29834226   0.77395152
H   -2.06313288   2.00823143   1.27718102
H   -1.72227976   0.84942669   0.36455518
C    0.44899932  -0.37588985  -0.02420298
O   -0.66665786   0.10672243  -0.65614668
O    0.09070677  -1.39239079   0.82164042
O    1.03768645   0.63117649   0.69485547
