52
Energy:  -1527.78679274
O    1.98643657  -0.15576976  -2.48704993
H    1.23094793  -0.22172782  -1.90299661
H    2.72542710  -0.45699199  -1.95847636
O   -0.01742132  -3.38626052  -0.93288419
H   -0.21693079  -3.07983784  -1.81749311
H    0.35815042  -2.62323504  -0.49360086
O   -2.88336045  -0.57231858  -0.33142851
H   -3.04518630  -0.21389496   0.54125514
H   -1.94433287  -0.44977206  -0.47086092
O   -0.31074667  -1.76977515  -3.14093295
H   -0.53066165  -1.22653685  -2.38412293
H    0.58182171  -1.51132187  -3.37061849
O    1.85543317   1.82508871  -0.58292766
H    1.98362937   1.37659035  -1.41877861
H    1.23780238   1.27110675  -0.10557241
O    2.00349305   0.26711976   2.76786266
H    1.96819944  -0.68480277   2.86182921
H    1.35291804   0.46609069   2.09451686
O   -0.75589728   2.12697624  -2.46033881
H   -0.53825695   1.31312483  -2.00590464
H   -0.42753959   2.81814484  -1.88527442
O   -3.16501831   0.50720721   2.16920175
H   -2.49378821  -0.10816792   2.46415167
H   -2.67276331   1.24162450   1.80239375
O    3.74590388  -0.91983872  -0.50421717
H    3.97301439  -0.17020424   0.04596536
H    2.83528375  -1.11360968  -0.28183091
O    3.90725521   1.29429067   1.10267064
H    3.38034930   0.91062639   1.80367258
H    3.26632809   1.60399558   0.46272757
O   -2.22261442  -3.02265025   0.68671792
H   -1.44503990  -3.25241346   0.17797577
H   -2.54811228  -2.22040878   0.27843907
O   -1.19423963  -1.30865512   2.61487995
H   -0.68754426  -0.75001659   2.02546105
H   -1.54896914  -1.99471233   2.04943823
O   -1.72267034   2.32106603   0.74754620
H   -2.23885295   2.16245037  -0.04278818
H   -1.04732984   1.64287564   0.73323372
O   -3.24584121   1.84385833  -1.49556600
H   -3.22585085   0.93180304  -1.20576023
H   -2.42658069   1.96084386  -1.97656333
O    0.10559488   3.88474237  -0.53859233
H    0.82988172   3.25897576  -0.53107146
H   -0.56663588   3.48036286   0.00987360
O    1.34851915  -2.35951447   2.47912603
H    0.46603798  -2.13797437   2.77641177
H    1.39766436  -2.00783705   1.59022807
C    0.00745726  -0.52195857   0.11398382
O    1.19844294  -1.19561453   0.04543359
O   -0.33685131  -0.07529736  -1.13463308
O    0.13568585   0.54640428   0.96247569
