52
Energy:  -1524.10727241
O    1.07508967   1.18801592  -2.84871551
H    0.99258226   0.50850487  -2.17961977
H    0.30391000   1.74140577  -2.72512972
O   -0.51310009  -2.35507006  -2.39469147
H   -1.33881536  -1.88338820  -2.50397261
H    0.00903777  -1.79497113  -1.82032828
O   -3.01882951  -0.85548401   0.04098532
H   -2.98222742  -0.72303289   0.98827030
H   -2.16638986  -0.55716292  -0.27616294
O    0.48137486  -0.92289497  -4.53728276
H    0.21652621  -1.53605471  -3.85162820
H    0.73326534  -0.12919749  -4.06523684
O    1.90564769   1.96455304  -0.34950443
H    1.85081524   1.85124210  -1.29839109
H    1.36141475   1.26287102   0.00782553
O    2.26176615   0.51768718   2.67612021
H    3.01339923   0.63115697   2.09439505
H    1.51085895   0.44619554   2.08683320
O   -1.15354881   2.48812837  -1.86199919
H   -1.01726901   1.60040973  -1.53091720
H   -0.78128495   3.05574886  -1.18712258
O   -2.59761120  -0.39803104   2.69114884
H   -1.86634543  -1.01133856   2.61810028
H   -2.24056906   0.43794508   2.39132111
O    3.03129865  -1.86753533   0.45657679
H    2.29483360  -1.47303970  -0.01056802
H    2.68957755  -2.05169902   1.33152952
O    4.08833575   0.63962098   0.64395819
H    3.82408068  -0.27206347   0.52053791
H    3.38754238   1.14969744   0.23782705
O   -1.81235205  -3.30841892  -0.06245708
H   -1.18717777  -3.13309767  -0.76577168
H   -2.33004369  -2.50604101   0.00400273
O   -0.52599047  -2.07490896   2.10022381
H   -0.19885767  -1.33723050   1.58539717
H   -0.89661974  -2.67413381   1.45230763
O   -1.60814770   1.80294273   1.41937860
H   -2.28052063   1.82398533   0.73842067
H   -0.94242852   1.20421311   1.08089275
O   -3.50295957   1.79923310  -0.57758053
H   -3.41912333   0.85038321  -0.48330852
H   -2.77116135   2.04997855  -1.14134461
O   -0.04490319   3.73658589   0.29418650
H   -0.60756767   3.16712900   0.81893347
H    0.73154797   3.20663852   0.11387779
O    2.04954873  -2.15911718   3.02031217
H    2.18501845  -1.21158432   3.02814096
H    1.13923227  -2.26913446   2.74562690
C    0.04373369  -0.50846087  -0.21553437
O    1.15377476  -0.70105013  -0.99507050
O   -0.90332291   0.17589665  -0.93096247
O    0.38713926   0.21434886   0.89684997
