52
Energy:  -1537.04417225
O    1.10496683   1.09166429  -3.04170771
H    1.05925395   0.41156919  -2.36968625
H    0.36683409   1.66972580  -2.84873935
O   -0.10378807  -2.98636626  -2.03098919
H   -0.55791450  -2.49007580  -2.71194207
H    0.35512110  -2.32271627  -1.51601064
O   -3.00570320  -0.81361276   0.07207712
H   -2.93111013  -0.65561915   1.01319653
H   -2.15589715  -0.55303233  -0.28311207
O   -1.02436450  -0.79374207  -3.45949420
H   -1.05000970  -0.57532711  -2.52789929
H   -0.25721463  -0.32910346  -3.79389498
O    1.95110736   1.91937894  -0.54007401
H    1.89924424   1.78714005  -1.48667580
H    1.40495260   1.22554990  -0.17054986
O    2.30260991   0.59462298   2.54234883
H    3.05303512   0.69857111   1.95729443
H    1.55281196   0.49553670   1.95564892
O   -1.02431668   2.48027723  -1.93348043
H   -0.92514101   1.59416220  -1.58534801
H   -0.64894405   3.04646666  -1.25912387
O   -2.50037231  -0.28039295   2.69928934
H   -1.78564777  -0.91142394   2.61443323
H   -2.13925991   0.53834615   2.35944237
O    3.06512922  -1.81118702   0.37782498
H    2.32205053  -1.42898831  -0.08906907
H    2.72876288  -1.99463830   1.25499951
O    4.14457672   0.67991904   0.51745479
H    3.88368552  -0.23611036   0.42228247
H    3.44351951   1.17445973   0.09297849
O   -1.88539088  -3.32855916   0.06540993
H   -1.24644497  -3.27293572  -0.64514338
H   -2.35781941  -2.49686410   0.02898933
O   -0.48643671  -2.01009886   2.07488528
H   -0.16600418  -1.30031183   1.51832692
H   -0.91207921  -2.61668281   1.46898411
O   -1.50585055   1.85760867   1.32933332
H   -2.19224453   1.87633841   0.66244176
H   -0.86231919   1.23343679   0.99391016
O   -3.41704115   1.84746439  -0.64147389
H   -3.36694807   0.89780176  -0.53255463
H   -2.68855560   2.06090774  -1.22455414
O    0.09507033   3.75554418   0.19815506
H   -0.47648897   3.19994164   0.72811509
H    0.84858021   3.20096122  -0.00406375
O    2.10616548  -2.07612536   2.95252436
H    2.23481977  -1.12769272   2.94005638
H    1.19211657  -2.19771713   2.69569393
C    0.06303872  -0.52787596  -0.31699333
O    1.15859314  -0.72422823  -1.11584543
O   -0.90208369   0.14159771  -1.02228937
O    0.42400451   0.21137869   0.77890195
