52
Energy:  -1525.94191089
O    2.29561532   0.76609251  -2.48399243
H    2.00990970   0.28628940  -1.70656519
H    1.51141575   1.22571994  -2.78400160
O    0.19814697  -3.88840818  -1.18159585
H    0.27188401  -3.16468115  -1.80370025
H    0.81932612  -3.67150848  -0.48638161
O   -2.67867675  -0.74563404  -0.65008990
H   -2.93931483  -0.38080149   0.19560322
H   -1.75312179  -0.51685059  -0.73516631
O    0.57610034  -1.69027796  -2.81257745
H    0.24089883  -1.13406196  -2.10937367
H    1.42547119  -1.30941994  -3.03562046
O    1.96431544   2.31609325  -0.18306703
H    2.37073915   1.97398954  -0.97931866
H    1.38561319   1.61308659   0.11208919
O    1.44086677   2.22481816   2.60915265
H    1.91587763   2.61237269   1.87403495
H    0.81838645   1.62244847   2.20184337
O   -0.18194871   2.02981970  -2.74792848
H   -0.18616270   1.28995497  -2.14062768
H   -0.12889683   2.80212325  -2.18493241
O   -3.12952878   0.37791650   1.79768979
H   -2.42652358  -0.18931667   2.11433166
H   -2.67690862   1.11552720   1.38866988
O    1.90022358  -2.96943962   0.70818950
H    1.75290244  -2.11256844   0.30781455
H    1.73165528  -2.83102083   1.64020710
O    2.81721638  -0.08127856   2.16359163
H    2.42827086   0.72714011   2.49737673
H    2.38437040  -0.22630806   1.32225778
O   -1.91515966  -3.12924107   0.42343343
H   -1.18353438  -3.42978017  -0.11567004
H   -2.23047795  -2.34062025  -0.01802259
O   -1.04943913  -1.31521015   2.34453529
H   -0.56200621  -0.70664733   1.78929454
H   -1.30101320  -2.02751863   1.75669266
O   -1.80056334   2.20603619   0.26340870
H   -2.20373355   1.97756905  -0.57414034
H   -1.07597559   1.58769917   0.35755632
O   -2.85789513   1.53364872  -2.18401592
H   -2.84543608   0.65866424  -1.79609997
H   -1.97210943   1.65764595  -2.52495614
O   -0.05163205   3.97475114  -0.83441406
H   -0.75757330   3.50637553  -0.38887721
H    0.74300614   3.50078152  -0.58919009
O    1.39766428  -2.12458838   3.27436666
H    0.50796345  -1.86925844   3.03050011
H    1.94762030  -1.40597032   2.96232771
C    0.32658680  -0.30916820   0.00336622
O    1.66326716  -0.48009895  -0.24366954
O   -0.30131555   0.09789396  -1.14430003
O    0.16029676   0.64062942   0.97702545
