52
Energy:  -1522.65213112
O    0.10169468  -0.26859013  -2.74876666
H   -0.71303146   0.22567539  -2.83907043
H    0.17897219  -0.43430826  -1.80919360
O   -1.60818635  -2.49327117  -0.60999256
H   -1.33005226  -1.58852921  -0.46746094
H   -0.82285623  -2.93845770  -0.92826511
O   -3.58906285   2.20570552   0.00798574
H   -3.37031455   1.53028499   0.65000454
H   -3.15409628   1.92227614  -0.79619317
O    3.28290769  -0.36764826  -1.10008529
H    2.47427414  -0.68392475  -0.69720465
H    3.05815052   0.49765456  -1.44208982
O    0.96441526  -3.26815095  -1.31004774
H    1.43452260  -3.00905390  -2.10257512
H    0.91379836  -2.46720051  -0.78836951
O   -0.14843766  -1.97924206   3.69388140
H   -0.87586723  -2.17814312   3.10437616
H    0.62065359  -1.95031657   3.12476471
O   -0.27963901   3.67138188  -1.87577955
H    0.46459491   3.06957087  -1.88886523
H   -0.58310653   3.65806665  -0.96805602
O   -1.09157348   3.15462250   0.63773432
H   -1.99589078   2.86865834   0.50863528
H   -0.58460217   2.34311027   0.66342191
O    3.22288968   0.68310279   1.45432909
H    2.28666513   0.85214800   1.34878691
H    3.48961646   0.28429001   0.62605556
O   -0.37373970   0.73586028   3.35646177
H   -0.27764104  -0.19081938   3.57614725
H   -0.04972855   0.80444714   2.45838356
O   -2.60162372   0.37329256   1.79885246
H   -2.01537545   0.63541128   2.50866834
H   -2.02135135   0.21620964   1.05397610
O    2.00268156  -1.73595368   2.02342932
H    2.58998425  -0.98816902   2.13354519
H    1.44007242  -1.49300250   1.28812154
O    1.59108958   1.72583332  -1.69860994
H    1.15439511   1.09888530  -2.27520857
H    1.30278680   1.48368269  -0.81856651
O   -1.96568284   1.52786590  -2.14744821
H   -1.41917348   2.31353794  -2.13075019
H   -1.61952878   0.97973428  -1.44320326
O    2.30887830  -1.81880123  -3.26523033
H    2.81233870  -1.42901369  -2.55051001
H    1.47225975  -1.35394224  -3.25082986
O   -2.32407171  -2.33604964   2.03657535
H   -2.03902697  -2.53170064   1.14399368
H   -2.51047555  -1.39720879   2.02861773
C    0.05671867  -0.11646907   0.46024361
O    0.65262378   1.08813579   0.72629362
O    0.91549609  -0.90041228  -0.26434811
O   -1.09061325   0.09113860  -0.25969301
