13
Energy:    -74.51411442
C    0.31421233  -1.85944794  -1.23841419
H    1.10269749  -1.75008004  -1.95341767
H    0.02936912  -0.89558868  -0.87134639
H   -0.52788880  -2.32664813  -1.70477109
C    0.80134139  -2.73167530  -0.06643948
N    1.16403112  -3.38108821   0.80614896
C   -0.23939726   1.69261811   0.88627515
H   -0.30285824   2.35447276   0.04793076
H   -0.69753914   0.75799487   0.63831444
H    0.78840325   1.53087554   1.13600407
C   -0.96794480   2.31799050   2.09032160
N   -1.51038155   2.78360867   2.98678892
Cl   0.04595508   1.50696784  -2.75739509
