13
Energy:    -76.50390633
C    1.27660659  -3.26294493  -0.56235000
H    0.36299182  -2.80647843  -0.88148409
H    2.10508937  -2.67223059  -0.89336652
H    1.28888710  -3.32777104   0.50561341
C    1.38145844  -4.67680393  -1.16368919
N    1.45952541  -5.72948623  -1.61141355
C   -1.08694996   3.26554632   0.57910996
H   -0.02024058   3.34649811   0.60097531
H   -1.39652963   2.88770561  -0.37288579
H   -1.40982796   2.59755325   1.35010552
C   -1.71194891   4.65425759   0.80814561
N   -2.17728904   5.68821625   0.97867305
Cl  -0.07177264   0.03593802   0.66256628
