13
Energy:    -77.20394953
C    2.35449472   2.36912740   0.26115511
H    1.94206723   3.11802663   0.90454744
H    3.07389861   1.79078227   0.80233350
H    1.57181031   1.72857766  -0.08813021
C    3.03915987   3.04557100  -0.94103360
N    3.54892419   3.54921400  -1.83611774
C   -2.22240932  -2.26531176   0.04298855
H   -2.54872905  -1.36234909   0.51529568
H   -1.61360313  -2.02516333  -0.80352362
H   -1.65319450  -2.84602255   0.73845140
C   -3.44822463  -3.07474924  -0.41938335
N   -4.36089985  -3.67741224  -0.76364025
Cl   0.31670557  -0.35029076   1.58705707
