13
Energy:    -75.30450667
C   -0.70529537   2.51873677  -1.13136573
H    0.24308105   2.05692511  -1.31084370
H   -1.43868545   2.09250084  -1.78356279
H   -0.99464800   2.35560883  -0.11423082
C   -0.59826329   4.03164644  -1.39828981
N   -0.51857304   5.15807646  -1.59702691
C    0.56663245  -2.90725803   1.07141402
H   -0.15967927  -2.23555900   1.47908040
H    0.17932018  -3.90455366   1.08843511
H    0.78513197  -2.62667092   0.06224212
C    1.85494484  -2.84247788   1.91263617
N    2.81415198  -2.79424612   2.53896430
Cl  -2.02811805  -0.90272884  -0.81745236
