13
Energy:    -74.98262935
C   -2.54704895   1.62983399   1.92418779
H   -2.99583767   1.50306834   0.96116166
H   -1.88285480   0.81372306   2.11837373
H   -1.99871585   2.54843974   1.94402191
C   -3.64626346   1.66476592   3.00219856
N   -4.46467863   1.69077433   3.80482658
C    2.55724333  -1.36253545  -2.04178450
H    2.51330187  -0.55487342  -2.74224961
H    3.06559335  -1.04017987  -1.15715676
H    1.56400593  -1.67080597  -1.79009452
C    3.31836290  -2.54523910  -2.66908754
N    3.88505101  -3.42581572  -3.13614316
Cl   0.63184096   0.74884413  -0.21825415
