13
Energy:    -79.44874014
C   -1.02622977   0.48774898  -3.31848967
H    0.02260603   0.68321462  -3.23702296
H   -1.22418935  -0.52313625  -3.02896915
H   -1.56412666   1.15428482  -2.67716604
C   -1.47668685   0.70203069  -4.77546317
N   -1.81207262   0.86157316  -5.86024616
C    1.02620009  -0.48779155   3.31849251
H    0.24877204   0.24684216   3.28987232
H    0.65990270  -1.41046942   2.91925464
H    1.85682006  -0.15104368   2.73405225
C    1.47683870  -0.70181413   4.77544796
N    1.81235963  -0.86116367   5.86021751
Cl  -0.00019401  -0.00027572   0.00001997
