13
Energy:    -75.17631418
C    2.12205873   2.65316839   0.17082659
H    3.01496920   2.09229697   0.35258005
H    2.02955516   2.84662822  -0.87746511
H    1.27443921   2.09288837   0.50627635
C    2.19000973   3.98835321   0.93519834
N    2.24060233   4.98245899   1.50430785
C   -1.99740178  -2.57724558  -0.16434785
H   -2.60001081  -1.75984913   0.17273609
H   -1.42627442  -2.27184144  -1.01607605
H   -1.33485637  -2.87904920   0.61977411
C   -2.90566346  -3.75886961  -0.55219497
N   -3.58190556  -4.63864241  -0.84096478
Cl   0.97447804  -0.77029681  -0.81065062
