13
Energy:    -76.51609404
C   -0.25152612   2.46135524   1.94573939
H    0.13222399   2.54101412   0.95010367
H   -1.01311410   1.71035463   1.97541972
H    0.54066326   2.19252976   2.61287352
C   -0.84788362   3.81449563   2.37581940
N   -1.29189889   4.82197016   2.69603351
C    0.47554058  -2.55766154  -1.93422456
H    1.29634293  -3.11824793  -1.53808495
H   -0.01691522  -2.03663516  -1.13992117
H    0.83881213  -1.85230746  -2.65214413
C   -0.51987422  -3.51590900  -2.61430630
N   -1.26100579  -4.22936779  -3.12065806
Cl   1.91863508  -0.23159066   0.44334997
