13
Energy:    -74.59203413
C   -2.59932989   1.34917228  -2.45035557
H   -3.27584176   1.77008239  -1.73616613
H   -1.60843851   1.70201255  -2.25404686
H   -2.61943973   0.28203024  -2.37484032
C   -3.02285899   1.77143771  -3.86948030
N   -3.33819566   2.08583352  -4.92608317
C    2.39969779  -1.25770215   2.57035357
H    2.17736427  -0.26756829   2.90962180
H    1.49089941  -1.81422627   2.47409610
H    2.88958630  -1.20763642   1.62040528
C    3.32261055  -1.95383450   3.58781698
N    4.00976105  -2.47213668   4.34536474
Cl   0.17418517   0.01253560   0.10331389
