13
Energy:    -76.79467996
C   -0.07365799   0.01440702   2.41686248
H   -1.05515390   0.25396164   2.76925366
H   -0.14702525  -0.64862891   1.58026241
H    0.42687426   0.91166208   2.11803156
C    0.72416559  -0.66747423   3.54385649
N    1.31818151  -1.17516581   4.38295476
C   -0.10983830   0.25802786  -2.48495404
H    0.49968971   1.02682713  -2.05796050
H   -0.44099387  -0.40463985  -1.71287465
H   -0.95846028   0.70029981  -2.96363487
C    0.71089623  -0.53126464  -3.52178198
N    1.32197040  -1.11892878  -4.29374751
Cl  -2.21664812   1.38091668   0.22373217
