13
Energy:    -75.21110999
C    1.81108843   0.69659271  -1.69543339
H    2.28217089   1.16549303  -2.53395232
H    0.81705452   1.07713276  -1.58595757
H    1.77275536  -0.36100972  -1.85325216
C    2.61891999   0.99619100  -0.41901300
N    3.22038731   1.21925555   0.53134001
C   -1.84840547  -0.68782912   1.11989509
H   -2.73432031  -1.16984037   0.76251540
H   -0.98776581  -1.17521424   0.71166207
H   -1.85405231   0.33852805   0.81747456
C   -1.80390084  -0.76981021   2.65706731
N   -1.77076511  -0.83084887   3.80156190
Cl  -1.52316666  -0.49864057  -2.31390791
