13
Energy:    -74.76075076
C    2.04521615   0.66973065  -0.80279601
H    1.42552346   0.40021019  -1.63239825
H    1.92036830  -0.04576949  -0.01706600
H    3.06931332   0.68432156  -1.11249135
C    1.64286290   2.06642648  -0.29392213
N    1.34329261   3.10633000   0.08495761
C   -1.79025389  -0.71884646   0.44506111
H   -1.68915335   0.29241607   0.11035682
H   -2.31891024  -1.28714761  -0.29145458
H   -0.81969657  -1.14380787   0.59447791
C   -2.57177153  -0.74475299   1.77177096
N   -3.15364694  -0.76404158   2.75956674
Cl   0.89685579  -2.51506894  -1.61606283
