13
Energy:    -75.91334633
C    1.43963912  -1.64061045  -0.59680760
H    1.08633112  -0.83257277  -1.20273560
H    2.02898985  -2.30376334  -1.19496565
H    2.03803641  -1.25297707   0.20103960
C    0.23866715  -2.40703988  -0.01212628
N   -0.65551107  -2.97768143   0.42319554
C   -1.00274231   1.36717803   0.41466156
H   -1.23199105   0.36188740   0.12876655
H   -0.31381236   1.35688568   1.23329987
H   -0.56411576   1.88248972  -0.41416876
C   -2.29563628   2.08719598   0.84080631
N   -3.25825460   2.62328207   1.15809045
Cl   2.49039978   1.73572607  -0.97905598
