13
Energy:    -74.28555650
C    0.94231850  -0.45024704   2.09589007
H   -0.05123655  -0.25780030   1.74845260
H    1.26650938  -1.40519297   1.73829023
H    1.60123713   0.30973216   1.73098333
C    0.95735229  -0.44662016   3.63581241
N    0.96854562  -0.44391978   4.78235460
C   -0.86210895   0.42669717  -2.18242186
H   -1.00064396  -0.45011081  -2.77984633
H   -1.44611844   0.34582696  -1.28950977
H    0.17193279   0.52302876  -1.92478452
C   -1.31043292   1.66639459  -2.97850975
N   -1.64423050   2.58940566  -3.57123337
Cl   0.40687562  -2.40719424  -1.00547763
