13
Energy:    -75.59107019
C    2.00562997   0.10981965   3.02870664
H    1.28711181   0.75179679   2.56341407
H    1.87363079  -0.89050258   2.67257360
H    2.99264985   0.44639013   2.78910039
C    1.80916800   0.14115885   4.55580211
N    1.66289313   0.16449231   5.69279409
C   -1.70272543  -0.20332339  -3.07495173
H   -2.05994915   0.07610668  -2.10582314
H   -0.86849351   0.41257226  -3.33882433
H   -1.39845403  -1.22905182  -3.06083783
C   -2.82718600  -0.01564065  -4.11030849
N   -3.66439801   0.12409768  -4.88117865
Cl   0.89012260   0.11208409  -0.73046672
