37
Energy:  -1029.47685509
O    0.82380485  -2.47103822  -0.10886537
H    0.03460726  -2.53248920  -0.64703151
H    0.56430169  -2.83030107   0.73955679
O    0.38690639  -2.54451760   2.66746777
H    0.34112403  -3.18354786   3.37864718
H   -0.17766706  -1.82637467   2.95340379
O    2.06392611  -0.76767276   1.40983794
H    1.75265895  -1.39491575   2.06245639
H    1.93304734   0.08818920   1.81800813
O    1.58981597  -0.16038818  -1.09089772
H    1.49097484   0.77261893  -0.90126644
H    1.14894067  -0.28241015  -1.93171366
O   -1.21782547   1.78046837  -3.24586348
H   -1.44145241   2.09281562  -4.12259721
H   -0.77934736   0.94263161  -3.39418191
O   -0.86934374  -0.08220628   3.08118047
H   -1.45325921   0.22926374   3.77274464
H   -0.19301086   0.59204051   3.01639663
O    1.24992347   1.62128777   2.45624969
H    1.76695223   2.21657405   2.99897187
H    1.20443260   2.05278226   1.60303522
O   -1.54847057   2.41049890  -0.64446431
H   -2.25655581   3.04584170  -0.53869729
H   -1.51850846   2.23901968  -1.58570232
O    1.13990111   2.40751412  -0.18149497
H    0.20558661   2.52567448  -0.35274446
H    1.55807312   3.15782217  -0.60387140
O    0.05514492  -0.67003540  -3.30517753
H   -0.56871872  -1.24188875  -2.85795302
H    0.32620506  -1.16746216  -4.07675051
O   -1.48199284  -2.10512258  -1.54046772
H   -2.31619479  -2.57244914  -1.58456811
H   -1.62621327  -1.41747260  -0.89041401
O   -1.26311998  -0.15061028   0.34321292
H   -1.29588373  -0.11562347   1.29921203
H   -1.47198189   0.74055441   0.06315213
H    1.50714597  -1.12739349   0.03177302
