37
Energy:  -1029.11801683
O   -2.08037865  -0.58459326  -2.02760206
H   -1.79282973   0.24305950  -2.41300881
H   -2.60656816  -0.99803695  -2.71201478
O    1.74289393  -0.26059759   2.68063444
H    2.22553147  -0.36904738   3.50010469
H    1.37564668  -1.12631366   2.50203714
O   -0.77009230   0.78915009   2.40542670
H   -1.30468240   0.09766792   2.79568005
H    0.13013524   0.54958895   2.62550095
O   -2.26016240  -1.51509400   2.59444563
H   -2.80770962  -2.03029531   3.18689099
H   -1.47895987  -2.05207021   2.46173917
O    0.26513402  -2.49596052   1.96801434
H    0.53238621  -3.41188698   1.89128859
H    0.21003110  -2.18552843   1.06422928
O   -0.40091035   1.87621626   0.05413313
H   -0.58525791   1.98999800  -0.87823029
H    0.55333565   1.82100099   0.10510075
O    0.09843212  -1.26272897  -0.43353622
H    0.90079814  -1.07023486  -0.91870284
H   -0.59713389  -1.20855390  -1.08888714
O   -2.48525542   0.34998348   0.50594154
H   -2.74151345  -0.38147759   1.06766066
H   -2.52159320  -0.00524514  -0.38215983
O    1.29318903   1.02633548  -3.66738730
H    1.82030910   1.00251627  -4.46601670
H    1.77862472   0.48684922  -3.04325702
O    2.44597067  -0.40115078  -1.60946023
H    2.54091484   0.24855654  -0.91297057
H    3.29602932  -0.83965892  -1.64610388
O    2.28212021   1.35712389   0.49965406
H    2.23940169   0.80518625   1.28053294
H    2.89002039   2.05828015   0.73432218
O   -1.02811873   1.88337735  -2.61025921
H   -0.21654155   1.64538230  -3.05851437
H   -1.36790898   2.62712159  -3.10787247
H   -1.22431471   1.04335241   0.96564799
