37
Energy:  -1027.32542331
O   -2.82605261  -0.79179045  -0.54475122
H   -2.71854936   0.09789303  -0.88111145
H   -3.70441177  -1.04960991  -0.82447637
O    3.08541397  -0.37228286   0.22044645
H    2.84750215  -1.25542226  -0.06185588
H    3.96219444  -0.46731304   0.59254473
O   -1.82093596   1.77123316   2.69519060
H   -2.10155247   2.42631081   3.33422073
H   -1.29196743   2.26125947   2.06566827
O    0.25513814  -2.57984899   1.84865583
H   -0.00217636  -3.38890935   2.29074454
H    0.88078126  -2.85995831   1.18056804
O    1.89987933  -2.80751666  -0.34022544
H    2.15676544  -3.55391001  -0.88164795
H    1.16723668  -2.41034091  -0.81109486
O   -0.16791062   2.22646351   0.45371580
H    0.62628932   2.35395214  -0.06515312
H   -0.86315209   2.11597515  -0.19486995
O   -0.20807178  -1.37268741  -1.23557206
H   -0.03235798  -0.68178838  -1.87433261
H   -1.15812788  -1.35665557  -1.11995100
O   -1.68631147  -0.81470937   1.93987440
H   -1.87225222   0.04869686   2.30891041
H   -2.22971704  -0.86158417   1.15327096
O    0.23557759   0.83254706  -2.84969223
H    0.51838670   0.84954929  -3.76400169
H    0.95718226   1.23656723  -2.36773137
O    2.12324229   1.86565415  -1.13645466
H    2.82218018   2.50360701  -1.28044708
H    2.55939687   1.12132416  -0.72175732
O    0.77051297  -0.02337238   1.64391740
H    1.63910148  -0.12453442   1.25462047
H    0.45034885   0.81165684   1.30266533
O   -2.02184712   1.66599137  -1.51363822
H   -1.32702816   1.43535559  -2.13029501
H   -2.51119083   2.36169814  -1.95269025
H   -0.24386397  -1.12226131   1.82916456
