37
Energy:  -1027.17121586
O   -2.08565004   1.53344654  -2.82038367
H   -1.34911026   0.94960324  -3.00167903
H   -2.61517411   1.50635096  -3.61731650
O    3.00197356  -0.64655432   0.59464230
H    2.61046474  -1.52002489   0.59600852
H    3.88398828  -0.77835695   0.94236337
O   -2.46108225  -1.29187074   1.35696937
H   -1.84392838  -1.70257884   1.96250368
H   -3.30543405  -1.69040486   1.56785426
O   -0.21512520  -2.09127666   2.81173866
H   -0.10183528  -2.54743364   3.64559599
H    0.35309098  -2.56165690   2.20173485
O    1.37663186  -2.86393211   0.68371038
H    1.41738064  -3.70112006   0.22144669
H    0.76388918  -2.33644720   0.17132584
O    0.60488759   2.08902878   0.20004346
H    1.17306480   1.77918062  -0.50522289
H   -0.06838929   2.60508601  -0.24336946
O   -0.30463720  -1.06224189  -0.43024435
H   -0.35697094  -0.83459815  -1.35850690
H   -1.21473730  -1.19079442  -0.16299182
O   -1.46785894   1.24710513   1.52241415
H   -1.98901959   0.44449748   1.50133367
H   -1.91548944   1.83983651   0.91865236
O    0.08938746  -0.15737489  -3.01242595
H    0.35907869  -0.61386871  -3.80936502
H    0.89938322   0.21393552  -2.66275856
O    2.25731117   0.87122013  -1.61666969
H    2.61746452   0.29423517  -0.94316410
H    3.01816441   1.33285496  -1.96912889
O    0.91149484   0.32271935   2.10530062
H    0.54659679  -0.47219602   2.49413326
H    1.72481089   0.03538188   1.69034758
O   -1.87977867   3.01068128  -0.56859704
H   -2.04069606   2.54562697  -1.38960979
H   -2.32317668   3.85185868  -0.67837239
H    0.02616548   1.20172094   1.29762934
