37
Energy:  -1026.62065018
O   -2.36584884   0.22621522  -2.20091340
H   -1.77003028   0.74925970  -2.73724964
H   -3.10985827   0.04548283  -2.77538502
O    2.53871615  -0.21796590   1.76092243
H    2.01735896  -1.01471035   1.66285710
H    3.14538839  -0.41449006   2.47475637
O   -2.17393559  -0.30109962   2.53206706
H   -2.05366605  -1.25001197   2.56856964
H   -2.76121508  -0.10536617   3.26215134
O   -1.66494626  -3.03359393   2.64326114
H   -2.17705905  -3.67132301   2.14599465
H   -1.48325130  -3.46878856   3.47622238
O    0.66073945  -2.12126600   1.39874398
H    0.32066924  -1.82431462   0.55470371
H   -0.08516553  -2.54655701   1.82181037
O    0.36837952   2.18003407  -0.57507127
H    1.30394046   1.97773578  -0.56933030
H    0.12440507   2.16100351  -1.50046100
O   -0.16927527  -0.88006819  -0.88934590
H    0.52188893  -0.78853627  -1.54520092
H   -0.98303837  -0.77143388  -1.38150447
O   -1.96960636   1.33875561   0.27275400
H   -2.34337286   0.76221408   0.93918503
H   -2.29164683   0.98675778  -0.55707690
O    1.79171711  -0.16307905  -2.71242368
H    2.38140024  -0.72898055  -3.21068179
H    2.35290904   0.24959727  -2.05592255
O    2.93090408   1.17548164  -0.57648731
H    2.93342714   0.64959995   0.22330887
H    3.74354003   1.67958268  -0.53481242
O    0.12291983   1.09132461   1.79319359
H   -0.48047685   0.54027725   2.29168242
H    0.97759482   0.67576820   1.90754127
O   -0.22833923   1.66047397  -3.21458648
H    0.49563371   1.03590177  -3.25935917
H   -0.10471665   2.22620429  -3.97675346
H   -0.48447172   1.54347051   0.46935650
