37
Energy:  -1029.64538199
O   -3.26523692   1.48168741  -0.29171688
H   -2.74052114   1.80783053  -1.02283648
H   -4.17177607   1.60211564  -0.57441043
O    2.92769418  -0.85125881   1.50761481
H    3.67661121  -1.07509351   2.06011201
H    2.51661022  -1.69239689   1.30829458
O   -1.32587214  -0.49500995   0.06642544
H   -1.47174018  -1.10339953   0.79086763
H   -2.18501978  -0.10585835  -0.09684798
O   -0.70719292  -2.01702975   2.30793625
H   -1.05283035  -2.62135341   2.96486816
H   -0.03783971  -2.52185147   1.84603458
O    1.35627300  -2.98582805   0.70704799
H    1.58955776  -3.89368702   0.51313524
H    1.11874103  -2.61253600  -0.14175320
O    0.48031867   1.92882524   0.02615017
H   -0.08098658   2.12505555  -0.72395777
H    1.25688300   1.51974091  -0.35572636
O    0.65707358  -1.50158717  -1.47843365
H    1.34323549  -0.83942146  -1.39506548
H   -0.08384746  -1.14216417  -0.99049620
O   -1.50179457   1.99828243   1.74406102
H   -2.24558635   1.91033832   1.14801449
H   -1.83776940   2.52198664   2.47144446
O   -0.55211695   0.01911141  -3.43345985
H   -0.65484437  -0.37757074  -4.29851603
H   -0.11593600  -0.65398929  -2.91104865
O    2.55100479   0.41551720  -0.89694543
H    2.90585415   0.00810105  -0.10680249
H    3.32218348   0.64820900  -1.41402356
O    0.57141431   0.42916787   2.17481000
H    0.07772016  -0.35827552   2.40378779
H    1.47128469   0.12350804   2.06062939
O   -1.28317848   2.24031660  -2.05436391
H   -1.06376660   1.48046328  -2.59354217
H   -1.26491152   2.97936091  -2.66240312
H   -0.14626445   1.40673735   1.27926674
