37
Energy:  -1025.69369656
O    0.99416456  -2.94840214   0.18622591
H    0.98803436  -3.88296409  -0.02062728
H    1.86927792  -2.65277978  -0.06480370
O    2.04419948   0.01927770  -2.16457499
H    2.49071842   0.21622936  -2.98802064
H    2.63579028  -0.57876603  -1.70785202
O   -0.91157409   0.56345477   1.46827684
H   -0.46784328  -0.16305010   1.90591310
H   -1.82937085   0.29467960   1.42776941
O    0.60362698  -1.48976237   2.48234233
H    0.33324237  -2.00899238   3.23965614
H    0.65972790  -2.12181913   1.76569124
O    3.37091815  -1.64393578  -0.38702412
H    3.34182239  -1.06957656   0.37815349
H    4.26984701  -1.97222566  -0.40663319
O   -1.32959062   1.88856934  -0.74260191
H   -1.72416690   2.75923389  -0.69275570
H   -1.98541926   1.35307788  -1.18911007
O   -0.36750841  -1.03573497  -1.30078387
H    0.38547305  -0.73196043  -1.80770773
H   -0.03917910  -1.79057528  -0.81226794
O    1.12043487   1.37925462   0.04492580
H    1.75038559   1.05135874   0.68670320
H    1.47111920   1.09892989  -0.80045600
O   -2.91593000  -0.14037206  -1.72948648
H   -3.31852038  -0.37956873  -2.56431448
H   -2.09257083  -0.62821598  -1.71160265
O    2.79025663   0.00707347   1.75474373
H    3.30964439   0.37673212   2.46876101
H    2.11640008  -0.51306014   2.19247679
O   -3.43910539  -0.23881866   0.98628636
H   -4.34098377  -0.38781406   1.27027159
H   -3.47746778  -0.28561838   0.03100108
O   -2.40992188   4.35788070  -0.50090443
H   -2.19149774   5.12060333  -1.03642001
H   -3.11666740   4.65974306   0.06972832
H   -0.38580506   1.26966505   0.24344845
