37
Energy:  -1027.12142234
O    2.11548959   2.18370721   2.56857138
H    1.95214211   2.03615723   1.63702511
H    2.62635956   2.99266305   2.59745348
O    0.38653772  -2.57625717  -0.35518620
H    0.59717870  -3.50999071  -0.35321069
H   -0.55670817  -2.54336293  -0.51467605
O   -2.32516459  -1.14701808  -3.12740842
H   -2.79906842  -1.25088070  -3.95255057
H   -1.63996624  -0.50789181  -3.32299132
O    0.19137763  -1.07879101   1.93236299
H    0.35722194  -1.68074927   1.20684678
H    1.03481859  -1.00248383   2.37847556
O   -2.29694568  -2.06109191  -0.59379800
H   -2.37985009  -1.77994495  -1.50501427
H   -3.05995832  -2.61945634  -0.44455746
O    1.63032283  -0.55155018  -1.75140895
H    2.51573751  -0.82220998  -1.99434097
H    1.25087079  -1.32257185  -1.32977691
O    1.08976955   1.38227365   0.16343880
H    0.39958108   1.84527125  -0.31143481
H    1.42184046   0.73892788  -0.46271372
O   -1.21308915   2.11641674  -1.17825454
H   -1.69296601   2.90571741  -1.42916191
H   -0.97961049   1.70310319  -2.00945336
O   -0.46935874   1.29333543   2.83245675
H   -0.97837944   1.68896090   3.53999493
H    0.39033366   1.70980483   2.89339986
O   -0.26733475   0.68179876  -3.33203217
H    0.44867665   0.23114949  -2.88428810
H    0.12257645   1.00341865  -4.14490470
O    2.54945014  -0.50551170   3.09974490
H    2.61981075   0.44712291   3.03835668
H    3.20577067  -0.75315629   3.75101088
O   -1.73358627   0.24267668   0.77381445
H   -1.70073475   0.92212186   0.10038526
H   -2.05393870  -0.53420062   0.31548290
H   -0.64540696   0.15049909   1.81005636
