37
Energy:  -1025.66341275
O   -2.23264099   0.54439852  -1.70455589
H   -1.72154281   1.26021117  -2.08221017
H   -3.06566200   0.56987683  -2.17536232
O    2.87452947   0.90602120  -0.46343897
H    2.41713213   0.21873547   0.02097599
H    3.77449114   0.86968951  -0.13943148
O   -1.48436638  -0.57853220   3.13811492
H   -1.02087015  -1.38469587   2.91117167
H   -2.12735445  -0.84791143   3.79403642
O    0.03058926  -2.69527101   2.27250684
H    0.46407050  -3.40578222   2.74526437
H   -0.28992196  -3.10286250   1.46791155
O    0.94153775  -0.63068527   0.67684515
H    0.53597301  -0.92686629  -0.13803269
H    0.80044196  -1.35129311   1.29088762
O    0.61569216   2.34716658   0.20949713
H    0.25927670   2.52664721  -0.66055262
H    1.49957831   2.01926320   0.04379714
O   -0.72911489  -3.56238575  -0.18532340
H   -0.99727342  -4.34691385  -0.66369409
H   -0.55741198  -2.91265091  -0.86693517
O   -1.58298066   1.09842480   0.89483257
H   -1.87651607   0.41516095   1.49750937
H   -1.94850291   0.84424210   0.04747403
O   -0.18267116  -1.29641527  -1.71181040
H    0.44575044  -0.85888215  -2.28616474
H   -0.98430921  -0.78009998  -1.79563648
O    1.62674149   0.48892717  -2.89850740
H    2.21341433   0.63055525  -2.15554824
H    2.21158453   0.32341467  -3.63796401
O    0.23503280   1.56586177   2.70426255
H   -0.22134134   0.85178691   3.14929242
H    0.57042503   2.11490368   3.41299161
O   -0.30181462   2.38768233  -2.38801383
H    0.37741362   1.80002262  -2.71897744
H   -0.28699488   3.13350899  -2.98780947
H   -0.20182933   1.63635776   1.22425019
