37
Energy:  -1025.71427612
O    3.53187108  -0.79574257  -0.26433173
H    2.99114215  -0.01848900  -0.40476304
H    4.42826071  -0.49443719  -0.41242810
O    1.35087985   0.87107764  -0.48435430
H    0.96984640   1.20786712  -1.29529093
H    0.95651775   1.40445436   0.20573240
O    0.11185107   2.13142419   1.65653878
H    0.54136508   2.90290663   2.02608500
H    0.28930399   1.43305091   2.28663170
O    0.35920441  -0.13873467   3.19551817
H    0.54513154  -0.29982677   4.12056535
H   -0.54233613  -0.43749681   3.07636410
O    1.34945082  -2.20009062  -1.31966608
H    2.27285161  -1.94980565  -1.28933022
H    1.04196402  -1.88064606  -2.16798140
O   -0.07407234   1.56831256  -2.75007638
H   -0.26466706   2.37238943  -3.23315597
H   -0.91243957   1.31659218  -2.36276631
O   -0.83927970  -1.45781032  -0.07296072
H   -1.27893523  -0.85590801  -0.67350087
H   -1.33931205  -1.39291963   0.74066615
O   -2.14066344  -0.82612295   2.27421352
H   -2.90978302  -1.24858934   2.65658647
H   -2.46181004   0.01989907   1.96221439
O   -2.23266565   0.54636531  -1.39455731
H   -2.45035387   1.00337513  -0.58216227
H   -3.08027455   0.34363799  -1.79040150
O   -2.54317885   1.64953885   1.11330051
H   -3.10179213   2.38199158   1.37348516
H   -1.65272503   1.95110707   1.29324620
O    1.40775882  -1.75589614   1.24338926
H    2.31908166  -1.51953577   1.07059949
H    1.15647387  -1.21277788   1.99045704
O    0.44902687  -1.01547915  -3.55549378
H    0.47593122  -1.15254765  -4.50244691
H    0.31667606  -0.07302059  -3.45308791
H    0.63278652  -1.80592670  -0.09146579
