37
Energy:  -1028.41109738
O   -2.16275783   1.25791750  -1.82500948
H   -1.51629806   1.56872450  -2.45882382
H   -2.99109783   1.26361735  -2.30464706
O    2.76083224   0.24051696  -0.56954013
H    2.61207693  -0.14790610   0.29256846
H    3.63334627  -0.06179157  -0.82165253
O    0.06022303   0.73461165   2.84690238
H    0.04317529   1.28561838   3.62941935
H   -0.65590736   0.11267401   2.97567617
O   -1.92965165  -1.13910471   2.70880398
H   -2.52365006  -1.58449192   3.31297943
H   -1.30001957  -1.81248562   2.45121234
O   -0.00367690  -2.67015725   1.65094365
H    0.83047653  -2.20114776   1.62973021
H   -0.18564420  -2.87776449   0.73441815
O    1.45714733   2.63266359  -0.98370666
H    1.97059045   3.40847321  -0.75847912
H    2.05317230   1.89872874  -0.83428871
O   -0.83638291  -2.72044527  -1.00574044
H   -0.29622296  -2.08403607  -1.47418723
H   -0.93529451  -3.44878506  -1.61890395
O   -2.21056084  -0.59037410   0.03723113
H   -2.27841580  -0.77781817   0.97344279
H   -1.88921221  -1.40555492  -0.34805725
O    0.43324540  -0.47306448  -1.87290643
H    0.38706837   0.16125994  -2.58826093
H    1.28761358  -0.31853376  -1.46990878
O   -0.68687267   1.51451743   0.32891115
H    0.03934264   2.00290000  -0.05880737
H   -0.40527415   1.33806475   1.22657399
O    2.10141251  -0.85006950   1.85439470
H    2.69684011  -1.13255881   2.54858315
H    1.47865615  -0.27069550   2.29340737
O    0.05873043   1.92036224  -3.27744890
H    0.29014109   2.34244357  -4.10481116
H    0.61544077   2.34731156  -2.62628093
H   -1.66866243   0.69289521  -0.49093208
