37
Energy:  -1026.99852679
O   -0.78577732  -0.84700563  -3.43748333
H   -1.19121162  -0.85026982  -4.30457284
H   -0.73136721   0.07904801  -3.20148324
O    1.77259461  -1.70871502  -2.84945091
H    0.89937684  -1.47086174  -3.16113727
H    2.13290988  -2.26094541  -3.54331427
O   -2.03816042   0.46286146   2.42423760
H   -1.53560173  -0.13482762   2.97780276
H   -2.83704422   0.63655910   2.92207858
O   -0.22120425  -1.20274745   3.62829282
H   -0.17759993  -2.03767259   4.09437276
H    0.01098202  -1.41954233   2.72534134
O    0.09860324  -1.21455673   0.91394621
H   -0.44738672  -1.63230779   0.24790502
H    0.94649397  -1.09208335   0.48696443
O   -1.96453288   0.78284312  -0.18660155
H   -1.61939899   1.21171961  -0.96965927
H   -2.08009605  -0.13154961  -0.44498680
O   -1.77623118  -1.81669329  -1.05266231
H   -1.46442619  -1.62035344  -1.93609887
H   -2.35567476  -2.57031031  -1.16463718
O   -0.14573484   1.89838916   1.31226795
H    0.52779975   1.98497917   0.63766794
H    0.34380826   1.79217488   2.12792592
O    1.60124819   1.90891870  -0.79825313
H    2.35052900   2.50208070  -0.85274124
H    1.98991973   1.03963873  -0.70068977
O    2.43044842  -0.66863619  -0.44876934
H    2.26935188  -1.07498005  -1.30033521
H    3.28145706  -1.01179027  -0.17625988
O    1.10009188   1.24184713   3.61007241
H    1.52449607   1.55077500   4.41049511
H    0.78295321   0.36574079   3.82937264
O   -0.62762041   1.71522618  -2.39927703
H    0.21953507   1.84391464  -1.97266394
H   -0.78746888   2.53464638  -2.86749796
H   -1.34493018   1.03010816   1.16036065
