37
Energy:  -1031.94590594
O   -2.27519070  -2.03348618  -0.30482969
H   -2.33396584  -1.50090834  -1.09801200
H   -3.11780064  -2.48498320  -0.25593429
O    2.52890829   1.88005297  -0.20437222
H    3.46039220   1.86986498   0.01577720
H    2.29619451   0.95713903  -0.30589077
O   -1.33920981  -0.12315917   1.43854581
H   -0.92603306  -0.65175699   2.12126183
H   -1.79457674  -0.75832223   0.88587892
O    0.05168999  -1.95396639   2.97490113
H   -0.21445980  -2.65003901   3.57563322
H    0.26552737  -2.40877846   2.16025311
O    0.27043471  -2.91371708   0.37602959
H   -0.63138125  -2.78409595   0.08250244
H    0.50699782  -3.78151256   0.04861434
O    0.75868238   2.65356276  -2.16142925
H    1.50127144   2.54804671  -1.56673631
H    0.85893178   3.53694025  -2.51614904
O    1.13590259  -0.44713129  -0.56103969
H    0.92224695  -0.45845377  -1.49402143
H    0.97890312  -1.34473751  -0.26797640
O   -1.20228967   1.63078448  -0.50648871
H   -0.61661452   2.14204659  -1.06490391
H   -1.70155346   1.08745157  -1.11620738
O    0.37403238   0.10475053  -3.18678095
H    0.83286038  -0.08693173  -4.00468475
H    0.55855014   1.02888864  -3.01899008
O    0.41465798   1.81964584   1.53916389
H    0.71427121   1.45424423   2.37159733
H    1.21935367   2.00758525   1.05607438
O    1.22108800   0.45026751   3.70311386
H    0.96549867  -0.46793834   3.61477378
H    1.53596994   0.52613745   4.60384965
O   -2.21904575  -0.17252161  -2.32270861
H   -2.86286453   0.01300769  -3.00630798
H   -1.37677522  -0.16313063  -2.77737774
H   -0.68529203   1.11265312   0.84003195
