37
Energy:  -1025.03477115
O   -1.54702303   0.55665906  -0.41646496
H   -1.60883455   1.02789093  -1.24733902
H   -2.28890897   0.87674842   0.09674057
O    2.25518531  -1.68839539   0.94308328
H    2.91896195  -2.12187334   1.47948732
H    1.47285128  -2.23044685   1.04489448
O   -2.77174223   1.45587650   1.94307544
H   -2.43923744   0.64438619   2.32668449
H   -3.63019629   1.57875547   2.34827814
O   -1.28761872  -0.76009788   2.81386514
H   -1.30339006  -1.04055050   3.72892221
H   -1.07458083  -1.55388939   2.32321074
O   -0.22642808  -2.85431530   1.31096889
H   -0.45337597  -3.78175075   1.37871835
H   -0.43739049  -2.62104391   0.40691626
O    1.13555093   1.84426642  -0.65208316
H    0.56958961   1.95705443  -1.41575750
H    1.77633005   1.18692032  -0.92324744
O   -0.64361015  -1.88732195  -1.15284024
H   -0.23937422  -1.69264114  -1.99837235
H   -1.07558877  -1.07147023  -0.89983370
O   -0.48142524   2.79670485   1.20407886
H   -1.33612735   2.51215535   1.52772640
H   -0.45792576   3.73676631   1.38286383
O    0.70919555  -0.70586787  -3.29708293
H    1.01078444  -1.15968370  -4.08405636
H    1.49099364  -0.62839690  -2.75025403
O    2.69611946  -0.29121898  -1.40584916
H    2.60404498  -0.90093745  -0.67373064
H    3.63730634  -0.26323166  -1.57794162
O    0.78581067   0.52976508   1.58239281
H    1.39257374  -0.19019177   1.40996150
H    0.08325788   0.13333263   2.09765268
O   -0.59511121   1.68530346  -2.78732566
H   -0.83005210   2.18546177  -3.56891141
H   -0.22204751   0.87157093  -3.12628687
H    0.44629818   1.68259193   0.65536778
