37
Energy:  -1026.51242046
O   -2.97676503   1.03163563  -0.92775446
H   -2.47632552   1.50153255  -1.59482944
H   -3.88861748   1.12017493  -1.20509494
O    2.52727978  -1.26648433  -1.40705534
H    2.03214557  -1.83998713  -0.82210363
H    3.27655899  -1.79434188  -1.68306063
O   -2.08758371  -0.80409330   2.96649234
H   -1.28550666  -1.31936474   3.05251325
H   -2.64274617  -1.10216052   3.68703548
O    0.48817819  -1.85777150   2.85054076
H    0.99251888  -2.37215035   3.48084760
H    0.65534396  -2.27987986   2.00785933
O    0.80923213  -2.68166094   0.24647296
H    0.47361879  -3.55029345   0.02494851
H    0.12004071  -2.07943574  -0.03383375
O    0.23748100   2.27153270  -0.04015372
H   -0.16569497   2.33588853  -0.90591311
H    1.15952305   2.08595056  -0.21800075
O   -0.82481902  -0.73414009  -0.67131791
H   -0.45502512  -0.58023744  -1.54068452
H   -1.71454328  -0.38503418  -0.72373599
O   -1.71891397   1.41285320   1.48125078
H   -1.96807152   0.68778337   2.05433551
H   -2.32985247   1.35876537   0.74636269
O    0.51503009  -0.20146945  -3.01935523
H    0.48617887  -0.65901849  -3.85962205
H    1.31355056  -0.52111931  -2.59933038
O    2.74002048   1.05580939   0.06559389
H    2.78197438   0.26274641  -0.46874948
H    3.63856987   1.38553357   0.07667547
O    0.76149451   0.72770712   1.98348816
H    0.69793414  -0.13408947   2.39519018
H    1.62424063   0.73257548   1.56890732
O   -0.94295981   2.11737059  -2.50887198
H   -0.41794589   1.39655437  -2.85674581
H   -0.91469368   2.78663402  -3.19262583
H   -0.29659005   1.47396752   1.16603495
