37
Energy:  -1024.86883130
O   -1.07633347   2.12287674   1.43305042
H   -0.97756730   2.72299829   0.69390820
H   -1.96002449   1.76767786   1.33736448
O    1.47188563  -1.17310829  -2.43120350
H    1.74819761  -1.58102176  -3.25186795
H    1.09128943  -0.33560526  -2.69571635
O   -2.23017140  -1.92868992   1.60561272
H   -1.72668382  -2.33214202   0.89853528
H   -2.59340205  -2.66775166   2.09355029
O    3.02440419  -0.44224341  -0.28954208
H    3.93770607  -0.31493237  -0.54625872
H    2.58448961  -0.71461949  -1.09484841
O    1.78965636  -2.02860792   1.58397649
H    2.33430167  -2.63164718   2.08987864
H    2.40536245  -1.57357839   1.00944539
O   -1.21333501   0.16839257  -0.82730093
H   -0.94616448  -0.73566566  -0.66137786
H   -2.07704290   0.24175920  -0.42127401
O   -0.18542112  -2.30861821  -0.34401577
H    0.28970740  -2.24015056  -1.17214433
H    0.49966179  -2.38464439   0.32014783
O   -3.31301450   0.54379369   0.92895138
H   -3.20423016  -0.34913376   1.25617972
H   -4.25724433   0.69761480   0.96058908
O    0.17213836   1.24788200  -2.85102604
H   -0.35156515   1.38899191  -3.63973035
H   -0.44356605   0.88097310  -2.21658315
O    1.36366780   1.42458068   0.85208751
H    2.01803673   0.84580506   0.46086901
H    1.25067270   2.12675774   0.21145397
O   -0.15416082  -0.20472261   2.22440060
H    0.57804815  -0.82044518   2.19297459
H   -0.93450183  -0.75744909   2.18205458
O    0.29817202   3.21928666  -0.89431350
H    0.50581324   4.10199167  -1.20082425
H    0.28928520   2.68530156  -1.68867664
H    0.02324519   1.11466257   1.52360934
