37
Energy:  -1029.92347726
O   -2.07638582   1.92356632   0.31341774
H   -2.40770890   1.32917981  -0.35975501
H   -2.86258451   2.29423868   0.71432356
O    2.69132538  -0.05396912   0.46777868
H    2.74851337  -0.85274821   0.99210047
H    2.56771295   0.64575407   1.10913605
O   -0.62291945  -2.48704429   1.78829506
H   -1.10967637  -2.71420511   2.58056869
H   -0.55482115  -1.53261160   1.81384341
O    1.19622743  -1.52145587  -1.07147060
H    0.27154239  -1.74958550  -1.16710687
H    1.54071584  -2.16876116  -0.45620200
O    2.08882063  -2.68847429   1.25578007
H    1.20114935  -2.77352774   1.60368446
H    2.55208690  -3.45665852   1.58971000
O    1.74676770   1.96825785   2.07688240
H    1.35966883   2.60618367   1.47735179
H    2.12069783   2.49729806   2.78152739
O   -1.45174222  -2.28790774  -0.83685166
H   -1.29299812  -2.45676779   0.09186705
H   -1.66929069  -3.14518528  -1.20288407
O   -2.84864843  -0.00344024  -1.50817015
H   -2.44299755  -0.83367443  -1.25838943
H   -3.73630674  -0.24108687  -1.77616017
O    0.35525570   3.23307699   0.03653936
H    0.29023415   4.12319030  -0.30944090
H   -0.55138034   2.93191553   0.09607690
O   -0.73839023   0.66415988  -3.16076365
H   -0.95821887   0.74230620  -4.08909568
H   -1.57221380   0.47122944  -2.73210533
O   -0.28833345   0.17971456   1.48309254
H    0.33957599   0.76367544   1.90847622
H   -0.97425595   0.76191934   1.15632082
O    1.24329596   1.07476339  -1.39740003
H    0.61046064   0.97212542  -2.10818604
H    1.00713014   1.90508367  -0.98384738
H    1.71502133  -0.13673316  -0.69603153
