37
Energy:  -1024.56628504
O   -2.88826051   0.37787525  -1.05707897
H   -2.50996542   0.72094763  -1.86666283
H   -3.81644606   0.25793719  -1.25787313
O    2.91393640  -0.68197624   0.40763680
H    2.37517611  -1.43436043   0.65235549
H    3.77591261  -0.87374635   0.77703238
O   -2.06738792  -0.20450497   2.90245823
H   -1.26552367  -0.47868374   3.34751056
H   -2.75378521  -0.30306230   3.56228932
O    0.52300994  -0.89034064   3.52206538
H    0.98915652  -1.08734304   4.33454877
H    0.76958410  -1.59781842   2.92632363
O    1.08046731  -2.51851704   1.33177416
H    0.27258853  -2.20994130   0.92147581
H    1.05596962  -3.46939941   1.22474884
O    0.29548226   1.68116419  -0.93453059
H   -0.31250436   1.78221096  -1.66690596
H    1.10604163   1.36909343  -1.33682053
O   -1.21031408  -1.31289694   0.47891523
H   -1.79530650  -1.00970125  -0.21541041
H   -1.67687313  -1.11254629   1.29034244
O   -1.51004266   1.65302402   0.95278173
H   -1.78196589   1.19229856   1.74652076
H   -2.13646276   1.37215724   0.28574082
O    0.52182407  -0.15844181  -3.88086661
H    0.79935043  -0.74478810  -4.58471957
H    1.30422852  -0.04382620  -3.34147956
O    2.51295315   0.51935389  -2.04042476
H    3.32167006   0.93807792  -2.33517720
H    2.77679489  -0.00813971  -1.28652166
O    0.95646178   0.92758894   1.48172670
H    0.79307340   0.46605851   2.30423856
H    1.74099074   0.51131784   1.12470495
O   -1.42729591   1.53192880  -3.05970961
H   -1.64777304   2.14732126  -3.75893332
H   -0.82455715   0.91053373  -3.46812852
H   -0.10924202   1.43984372   0.51759286
