37
Energy:  -1026.39655490
O   -3.08621845   0.28626531  -1.34068427
H   -2.41898070   0.60350437  -1.94927692
H   -3.91297642   0.60292870  -1.70459004
O    3.11012686   0.43197713   1.66400377
H    2.87933584  -0.49611510   1.70415567
H    3.80853799   0.53378904   2.31060107
O   -1.84309622  -0.94262522   2.52461166
H   -2.29243119  -1.29654485   3.29212116
H   -2.08862896  -1.53069901   1.81038849
O    1.97167392  -2.00436646   1.65345341
H    1.98452502  -2.95746216   1.74106210
H    1.28480630  -1.83179871   1.00950847
O   -2.46362624  -2.06486845   0.00433746
H   -2.93954098  -2.84684083  -0.27540564
H   -2.83708010  -1.35631371  -0.51979445
O    0.31404219   2.01401206  -0.30317184
H   -0.13690323   1.94739932  -1.14486230
H    1.23371492   1.84745473  -0.50979366
O    0.11463410  -1.11374674  -0.14516094
H    0.42767108  -1.04729749  -1.04728299
H   -0.72682680  -1.56452148  -0.21571267
O   -1.86195487   1.23789712   0.91792248
H   -2.07426965   0.57494595   1.57492326
H   -2.39261777   1.00067897   0.15742508
O    1.24269423  -0.41901632  -2.57888686
H    1.71844234  -0.95945813  -3.20961520
H    1.92524102   0.06785521  -2.11702341
O    2.84195976   1.18505861  -0.96098599
H    3.08409188   0.88180244  -0.08597766
H    3.56932854   1.74593110  -1.23040863
O    0.44139547   0.93932361   2.09181256
H    0.10852204   0.15783564   2.53306497
H    1.39038335   0.81627208   2.06918108
O   -0.89714674   1.31599621  -2.67831021
H   -0.19508727   0.68179675  -2.82369042
H   -0.90666662   1.84979384  -3.47279200
H   -0.35419104   1.39458180   0.89257273
