37
Energy:  -1024.92513105
O   -3.87619033   1.09757628   0.36758131
H   -3.65056201   0.79888757  -0.51338905
H   -4.78726375   1.38283819   0.29827964
O    2.86754830   0.61727202   2.17160353
H    2.35945512  -0.13039003   1.85684229
H    3.35029939   0.27896226   2.92574526
O   -1.44892179  -2.33183200  -1.41665443
H   -0.52117933  -2.16423088  -1.58229153
H   -1.64506529  -3.11892606  -1.92483012
O   -1.41839962  -2.23291746   1.36324031
H   -1.55363647  -2.38846885   0.42849617
H   -1.85111413  -2.96995378   1.79424780
O   -1.64899506   0.47911789   1.72780342
H   -1.64344189  -0.47790110   1.74557056
H   -2.52056352   0.70810129   1.40505449
O    1.71372543   1.01220033  -2.03830419
H    1.88422645   1.53106153  -2.82439853
H    2.47667651   1.16384716  -1.48050429
O    1.22061813  -1.66334643  -1.67044967
H    1.42247112  -0.76574604  -1.93464803
H    1.94388761  -2.18451393  -2.01901465
O   -2.52173422   0.16737258  -1.88621145
H   -2.25486796  -0.74679365  -1.78970056
H   -2.78391462   0.24527967  -2.80350299
O    0.50476235   1.96697067   1.90973342
H    0.41701963   2.66855998   2.55495083
H    1.37599385   1.60329938   2.06762804
O    3.77612932   1.34935052  -0.33038696
H    4.66156233   1.71285557  -0.32017330
H    3.59186768   1.14050082   0.58539757
O    1.03940152  -1.02797340   1.01134147
H    1.20838034  -1.29284175   0.10717182
H    0.33056935  -1.60224996   1.30116078
O   -0.48811015   1.33107395  -0.44348981
H   -1.19706030   1.02384381  -1.00849528
H    0.28650022   1.32539987  -1.00578725
H   -0.52687898   1.21379824   1.07409966
