37
Energy:   -678.64872195
O    1.61524904   0.74521488  -2.49720805
H    2.14589077   1.01285905  -3.24755317
H    1.17708307  -0.05515929  -2.78642012
O    0.08234622  -1.94809854   2.80447541
H   -0.05424890  -2.65014547   2.16831211
H    0.24036051  -2.40182672   3.63236071
O   -0.48787956   4.05154592   1.12969716
H   -0.23879037   3.56695636   0.34270327
H   -0.54289768   4.96310627   0.84288261
O   -1.10226443  -1.14857785  -0.49163216
H   -1.79470132  -0.51070236  -0.66448428
H   -0.67238711  -1.27140824  -1.33800680
O    1.15080452   2.53761289   2.76897297
H    0.69943340   3.26150939   2.33484186
H    1.78080659   2.96227650   3.35120149
O    2.22817260  -0.59736656  -0.13785023
H    2.24823245  -0.10648570  -0.95935216
H    2.25989876  -1.51564611  -0.40615596
O   -2.05872876   1.87077432   1.80616316
H   -1.64898715   2.72741748   1.68572159
H   -2.58588458   1.96628661   2.59939452
O   -0.04886225   2.06627865  -0.72754395
H    0.53499517   1.74106310  -1.41280099
H   -0.92365850   1.80174557  -1.01212367
O   -2.66870902   1.09661023  -0.76999032
H   -2.68672178   1.39152618   0.14046669
H   -3.52796343   1.33642680  -1.11697983
O    0.34547966  -1.68060912  -2.79696919
H    0.90696810  -2.29714876  -2.32703147
H    0.05732037  -2.16171399  -3.57268446
O   -0.40223164  -3.55658414   0.61623788
H   -1.07920716  -4.23291957   0.59373510
H   -0.82013318  -2.78585812   0.23208745
O    1.79252122  -3.21020727  -1.02762266
H    2.43388464  -3.92056301  -1.01090364
H    1.11444041  -3.48451775  -0.41021516
K    0.32360615   0.35261030   1.46048028
