37
Energy:   -679.30395337
O    2.06769087   1.42851878  -2.97885199
H    2.56739922   1.59944367  -3.77716778
H    1.46989561   0.71989263  -3.21701510
O    1.30670667  -2.04429854   2.81365859
H    1.90029117  -2.53961095   3.37806528
H    0.44707767  -2.14480513   3.22252075
O    0.59230567   3.09327343  -1.31643871
H    1.19458955   2.66958574  -1.92797344
H    0.44007025   3.96061093  -1.69164782
O   -1.56015773  -2.07750296   0.72363462
H   -1.61017465  -2.29097417   1.65538577
H   -2.26734509  -1.44786163   0.58338602
O    0.71623797   2.32336827   1.35431429
H    1.25410924   2.91175200   1.88415475
H    0.71530872   2.71877775   0.48260199
O    2.91818429   0.23598597  -0.64449524
H    3.87127382   0.16724407  -0.58857794
H    2.75751897   0.66749626  -1.48367185
O   -1.26205103   0.61797644   2.44176870
H   -2.01753878   0.63894825   1.85437591
H   -0.81492086   1.45014142   2.28747059
O   -0.90889930   0.79771384  -1.16558555
H   -0.54182751   1.67663399  -1.26039861
H   -0.67820174   0.35207377  -1.98070236
O   -3.08219370   0.22802468   0.39545674
H   -2.47948819   0.52365468  -0.28687809
H   -3.94654898   0.49883162   0.08596458
O    0.20383840  -0.59912664  -3.25919093
H    0.31361723  -1.33417782  -2.65596608
H   -0.19962737  -0.98496468  -4.03673593
O   -1.35036018  -1.92697049   3.51663813
H   -1.90931848  -2.09188500   4.27598040
H   -1.40932781  -0.98200552   3.37594036
O    0.34884823  -2.42586930  -1.20766896
H    0.73785353  -3.29990831  -1.23869367
H   -0.43123837  -2.52958106  -0.66274638
K    0.73521718  -0.41723094   0.76869375
