37
Energy:   -676.25596186
O    1.63675813   1.99603887  -2.17331940
H    2.02416442   1.12123698  -2.20281290
H    2.27109242   2.55468957  -2.62249781
O    0.21146337  -3.21802654   1.27862669
H    0.13427758  -3.95810627   1.88075309
H   -0.46149850  -3.37612011   0.61653864
O   -0.42317968   3.26543358   1.95614357
H   -1.06006352   2.81240371   1.40353634
H   -0.77527922   4.15032414   2.05219806
O   -1.82125488   1.51554961   0.37009136
H   -2.42264252   0.77751454   0.46943409
H   -1.69596804   1.59745466  -0.57533268
O    1.49103204   1.73898094   0.58181146
H    1.59856838   2.01445541  -0.32856297
H    1.05553157   2.47812213   1.00636002
O    2.41869270  -0.66249739  -2.02358017
H    3.02144017  -1.15137994  -2.58386688
H    2.59120404  -0.99111240  -1.14126284
O   -0.18690660   1.01811102   3.55295622
H   -0.24611170   1.90021140   3.18604272
H   -0.13071430   1.15483844   4.49867282
O   -1.74723910  -3.12252535  -0.66181295
H   -2.11588209  -3.69852486  -1.33155824
H   -1.26435773  -2.45932212  -1.15498524
O   -2.66165717  -1.09344317   0.98529965
H   -2.56204603  -1.85220318   0.41032773
H   -3.42624563  -1.29877474   1.52332872
O   -1.07711968   1.50754537  -2.28978508
H   -1.49963395   1.89036344  -3.05865689
H   -0.17169412   1.81468231  -2.33564694
O   -0.25698378  -0.98088529  -1.46211531
H   -0.64918374  -0.19673856  -1.84620505
H    0.64432079  -0.98090955  -1.78442249
O    2.42496602  -1.72516258   0.52455290
H    1.87938094  -2.48576988   0.72466611
H    3.20597277  -1.84098895   1.06570404
K    0.04750750  -0.39033608   1.28651804
