37
Energy:   -673.44894700
O   -0.40553887   3.54747039  -1.10046004
H   -0.13088895   4.45508825  -1.23095559
H   -0.20842505   3.11524579  -1.93145938
O    0.62105305  -1.55270924  -1.09861751
H    1.37913603  -0.98840525  -0.94662060
H    0.73773898  -2.28090300  -0.48841256
O   -2.81024567   2.24942409  -0.73457852
H   -2.08774322   2.86403127  -0.86295322
H   -3.59791342   2.79087818  -0.78594807
O    0.03786674   2.04547495  -3.31577936
H   -0.32753387   1.16132778  -3.34737087
H    0.26819632   2.24254192  -4.22371369
O   -0.95997264  -0.53041233  -3.08857436
H   -0.27410461  -1.04159247  -2.65902604
H   -1.23771621  -1.07353117  -3.82621403
O   -3.57879649  -1.83636669   0.65321607
H   -2.96033122  -2.00527943   1.36399103
H   -4.37851471  -2.29095503   0.91785176
O    0.28130265   1.41190818   0.49900902
H    1.13308077   1.11898692   0.17512166
H    0.13334623   2.25010300   0.06109328
O    2.69674753  -1.21631019   2.19833571
H    3.38881612  -1.30170788   2.85406443
H    2.03100169  -0.67397458   2.62128537
O   -1.06984622  -1.55863423   1.87940367
H   -0.61171404  -0.94971287   2.45868040
H   -0.42646489  -2.24232439   1.69269515
O    0.58801416   0.35922534   3.01655714
H    0.46233835   0.89183454   2.23121334
H    0.42621622   0.96104702   3.74309959
O    2.61584047   0.13093964  -0.21577253
H    2.82244619  -0.32580667   0.59965909
H    3.46801789   0.37725566  -0.57543058
O    1.04013539  -3.16615320   1.12348455
H    1.72211602  -2.63568395   1.53547562
H    1.29858691  -4.07029921   1.30224319
K   -1.77218767  -0.19018257  -0.44470752
