37
Energy:   -674.11696203
O    0.00664811   2.65935164   2.00589018
H    0.45373942   3.41760991   2.38190295
H    0.30979451   2.62761334   1.09851661
O    2.33608705  -1.70630313   1.40070542
H    1.59309726  -1.21324277   1.74868458
H    2.82397265  -1.98414129   2.17595084
O   -2.49510293  -0.53242172   2.40362864
H   -3.16078154  -0.91585514   2.97466511
H   -2.78156974   0.37173486   2.27451825
O    0.20614625  -0.13455165   2.07003542
H   -0.62541667  -0.40676016   2.45815587
H    0.26286893   0.80251406   2.25691036
O    2.85372582   0.28579370  -0.43182294
H    3.78491560   0.43828499  -0.59264537
H    2.83479972  -0.37771780   0.25783359
O    0.82124306  -0.88665063  -1.86002967
H    0.89999049  -1.82600131  -1.69374379
H    1.60879879  -0.50708396  -1.47026441
O   -2.55920246   1.98520881   1.29566852
H   -1.76360312   2.39468453   1.63564377
H   -3.14526398   2.71846346   1.10831494
O    0.63761633   1.94357503  -0.55083815
H    1.48255778   1.50027777  -0.47472424
H    0.51870032   2.07357176  -1.49168441
O    0.18953278   1.40798480  -3.28544512
H    0.45444611   0.51990007  -3.04594923
H    0.60316094   1.56092653  -4.13500525
O    1.21255335  -3.33688675  -0.55164806
H    1.66739889  -2.89823932   0.16733443
H    1.72345297  -4.13068645  -0.71006356
O   -1.45641570  -2.75822629  -0.23352480
H   -2.02915615  -3.52373365  -0.18663436
H   -0.57592234  -3.12248728  -0.32450405
O   -2.40101376   1.06621552  -2.42839865
H   -1.60585160   1.29808053  -2.90817737
H   -3.11393513   1.26303287  -3.03604813
K   -1.37399179  -0.07902995  -0.23990818
