37
Energy:   -678.46914109
O    0.71340225  -2.19559812   0.84747083
H   -0.19365461  -2.36131609   0.59053263
H    1.22538478  -2.39748711   0.06430637
O   -2.62138303   1.74221423  -1.20138691
H   -2.33694759   1.41351970  -0.34857495
H   -3.44261102   2.19952085  -1.02059117
O    1.12668485   3.07739678   0.23686280
H    0.68814537   3.11953055  -0.61292524
H    1.46134747   3.96294971   0.37838593
O    0.49147565   0.09647245  -1.67100044
H    0.43649245   1.00082385  -1.97980012
H   -0.35699465  -0.28569159  -1.89523388
O   -0.42905159   0.68849732   3.47098736
H    0.13809887  -0.04801491   3.69928966
H   -0.62991221   1.10544528   4.30886638
O    3.56474770  -0.33749650   0.28014911
H    4.52184044  -0.32340238   0.27756512
H    3.33281480  -1.00470052  -0.36582130
O   -1.63369108   0.46401395   1.00533020
H   -1.84480434  -0.46183715   0.88506894
H   -1.51738708   0.56286502   1.95028188
O   -0.22475735   2.74653665  -2.13788961
H   -1.12074465   2.53300308  -1.87742458
H   -0.32547791   3.30228213  -2.91069888
O   -2.08553740  -0.77166446  -2.20785829
H   -2.42754847   0.09191254  -1.97656833
H   -2.46641164  -0.95871210  -3.06586752
O    2.24842455  -2.01274352  -1.47930540
H    2.47194092  -2.46903717  -2.29051955
H    1.69342616  -1.28460008  -1.75861846
O   -1.96692613  -2.15445558   0.17205080
H   -2.63387654  -2.83212665   0.28237266
H   -2.09657259  -1.83314274  -0.72023935
O    1.47428455  -1.27348400   3.31712907
H    1.26556746  -1.87021280   2.59839145
H    2.10923306  -1.75228619   3.84987731
K    1.16393784   0.54479708   1.08289169
