37
Energy:   -676.27772617
O    1.50935180   1.32774493  -2.36467390
H    1.15980107   0.56653503  -2.82792936
H    1.87033919   1.88389958  -3.05504479
O   -1.49366831  -0.91434910   2.53430444
H   -1.92075846  -1.46889499   3.18722458
H   -2.04874088  -0.13640933   2.48011944
O   -0.65454253   3.06924951   2.16895286
H   -0.36914269   2.76269275   1.30825446
H   -0.55682048   4.02062620   2.12939739
O   -2.61101132   0.75727911  -0.54942769
H   -2.86826337   0.95909327   0.35019683
H   -3.37137783   1.00164863  -1.07702428
O    1.22679608   1.29854009   3.17346147
H    1.74227749   1.60655352   3.91887309
H    0.60379035   2.00523294   3.00410703
O    2.74634342  -0.39416538  -0.57411918
H    2.84753078  -1.18425893  -1.10491590
H    2.53720271   0.29406600  -1.20564873
O   -2.88015320   1.44064553   2.12340173
H   -3.61316041   1.78161778   2.63591534
H   -2.18379565   2.08672452   2.24129975
O   -0.05132550   1.68631492  -0.10757349
H    0.48548763   1.71418385  -0.89958790
H   -0.92302858   1.44012831  -0.41702096
O   -0.83931511  -1.36721021  -0.88479808
H   -1.58955892  -0.77674189  -0.81614503
H   -0.50887899  -1.23312021  -1.77309065
O    0.56246212  -1.10660981  -3.26469870
H    1.22080129  -1.73198993  -2.96184380
H    0.30763782  -1.42662395  -4.13008149
O    0.78316209  -3.21980187   0.25733735
H    0.44072069  -4.05362164   0.57937822
H    0.03441259  -2.80060669  -0.16678695
O    2.36208982  -2.75976382  -1.97195937
H    3.01287123  -3.43168758  -2.17502061
H    1.90600077  -3.09314241  -1.19925416
K    0.86175545  -0.56888660   1.28529598
