37
Energy:   -676.19696368
O    0.25931515   0.91577653  -2.43338431
H    1.07227270   0.54018463  -2.77141183
H   -0.42753888   0.33445448  -2.75977067
O   -1.71782206  -0.42787733  -0.13059940
H   -1.95724058   0.45586359   0.14852890
H   -1.91623620  -0.98036547   0.62545650
O   -0.08488396   3.27684426  -1.12221860
H   -0.13692809   4.04706635  -1.68815252
H   -0.01944516   2.53824524  -1.72754587
O    0.08724266  -1.10908662   3.78709631
H    0.11506140  -0.24737193   3.37127693
H    0.11197846  -0.92349209   4.72580535
O    0.19951513   1.06698106   2.13589928
H    0.90966134   1.62832683   1.82474797
H   -0.59844124   1.49597479   1.82693026
O    1.93867595  -1.96660902   1.93183510
H    2.56436069  -2.61735525   2.25008000
H    1.36904273  -1.79462373   2.68161567
O   -1.87273423   2.20739376   0.69893960
H   -1.36116596   2.71044400   0.06532284
H   -2.59443273   2.78818268   0.93991129
O    1.98648895   2.14494921   0.31750038
H    1.38175187   2.69774446  -0.17741612
H    2.80005854   2.64823801   0.34969917
O   -1.62891262  -1.09801908  -2.77164083
H   -2.45534071  -1.21183257  -3.24099673
H   -1.88904404  -0.90741262  -1.87040132
O    2.50714406  -0.70839766  -2.51889064
H    3.30825079  -0.85593087  -3.02157723
H    2.02866312  -1.53503274  -2.58183727
O   -1.93464587  -1.95142777   2.10134483
H   -1.29723937  -1.75064957   2.78664251
H   -2.54068072  -2.56895870   2.51074581
O    0.54646279  -2.56336765  -1.94421712
H   -0.25516240  -2.22804852  -2.34570184
H    0.42241884  -3.51209885  -1.91675707
K    1.04165169  -0.47657152  -0.09596153
