37
Energy:   -674.45381157
O    2.44307134   1.41736406  -1.47128129
H    3.21343029   1.68174470  -1.97415485
H    2.66649092   1.62377576  -0.56369672
O    2.37575910  -0.99093281   1.71116819
H    2.95812230  -1.47321333   2.29810128
H    2.74875768  -0.11020820   1.67337840
O   -0.21040883   1.61180112  -2.23820242
H   -0.31884189   2.14783353  -3.02378715
H    0.73159244   1.62232578  -2.06863034
O   -0.57144321  -3.33071961   0.63829206
H   -0.85775085  -4.19810269   0.92448493
H   -0.48533056  -3.40782296  -0.31190347
O    2.92091382   1.68973562   1.25049623
H    3.54388198   2.28929749   1.66118842
H    2.09194065   1.86211745   1.69694873
O    1.61225169  -1.15777624  -0.92650278
H    2.10968547  -1.32924150  -0.12688340
H    1.96962628  -0.33463214  -1.25959291
O   -1.26150047   1.94403588   0.28979568
H   -0.95262266   2.01638307  -0.61330577
H   -2.19391941   1.74322310   0.20916686
O    0.43592094   1.75130129   2.37698663
H   -0.20210467   2.05948025   1.73341775
H    0.12384512   2.10190348   3.21120401
O   -3.69380581   0.62389063  -0.10182926
H   -3.16961191   0.07904150  -0.68884887
H   -4.52826605   0.73383513  -0.55770224
O   -1.62295697  -0.65866980  -1.40335327
H   -1.29883548  -1.47369544  -1.78664208
H   -1.14802447   0.03048547  -1.86782715
O   -2.75310188  -0.37177303   2.29173669
H   -3.39108340  -0.58535922   2.97261287
H   -3.27893996  -0.02844720   1.56934238
O   -0.15587906  -2.92182153  -2.06204664
H    0.60656815  -2.39492632  -1.82269848
H    0.13103678  -3.42759588  -2.82237779
K   -0.36740931  -0.69905960   1.11554988
