37
Energy:   -675.22869117
O    1.18534196  -0.99960095  -2.03429822
H    0.81087053  -1.84865816  -1.79955400
H    1.64134724  -1.15865474  -2.86073208
O   -3.06079791  -0.81724193   1.11090028
H   -3.07687787  -1.27509704   0.27045874
H   -3.94424869  -0.92896008   1.46199232
O    1.66084542   3.20753954  -0.75013441
H    1.04279048   3.12240111  -1.47607614
H    2.31207036   3.83600929  -1.06184533
O   -1.13263999   0.35823356  -1.49586071
H   -0.32973452  -0.06549523  -1.79922284
H   -1.81172984  -0.30722390  -1.60647344
O    0.31697547   0.25210088   3.64265659
H    0.41109434   0.54008226   4.55064349
H    1.16821951  -0.12547404   3.42117834
O    2.44642834  -0.93276410   2.32111697
H    2.43629321  -0.33841251   1.57086680
H    3.37369835  -1.12152766   2.46523667
O   -0.33600903   3.28301095   1.14882901
H   -0.55621746   4.16188109   1.45758031
H    0.38255031   3.41866259   0.53116975
O   -0.26641893   2.74493541  -2.59247578
H   -0.81625446   3.10538596  -3.28816835
H   -0.73415906   1.96366977  -2.29739103
O   -2.69831494  -1.93263460  -1.39604798
H   -3.26932074  -2.37746549  -2.02239429
H   -1.91937074  -2.48667980  -1.34593112
O    1.76368176   0.59932273   0.15429895
H    1.89213049   1.49578789  -0.15567361
H    1.72581708   0.07248209  -0.64397235
O   -0.23563990  -3.14809488  -1.04677055
H   -0.11024467  -2.86262559  -0.14177598
H   -0.01479648  -4.07942334  -1.03742551
O    0.07479520  -2.04960549   1.42959364
H    0.94819946  -1.83890225   1.75974663
H   -0.40437699  -2.35842687   2.19852486
K   -0.81458612   0.65743815   1.22826207
