37
Energy:   -678.92678277
O    2.18183152   0.82183569  -2.16707996
H    2.79859641   1.25526879  -2.75696865
H    1.54387167   0.40822041  -2.74859649
O    0.31927410  -2.67241648   2.43174803
H   -0.24975277  -3.08412786   1.78141427
H    0.52121041  -3.37307333   3.05185572
O   -0.32319911   3.52473276   1.63735584
H   -0.45637126   4.44565865   1.41287304
H   -0.08570994   3.10774923   0.80913155
O   -1.92345894  -0.65160884   0.44573709
H   -2.22702360   0.00608142   1.07145576
H   -1.99860972  -0.22397823  -0.40732579
O    1.57167758   1.98869900   2.96014586
H    1.02226573   2.70916564   2.65142871
H    2.15965609   2.39191359   3.59884071
O    2.39678063  -1.00703003  -0.11595867
H    2.47924063  -0.38305380  -0.83712846
H    3.26647020  -1.39902646  -0.03715073
O   -1.79258532   1.30989208   2.41987269
H   -1.44817826   2.18098217   2.22285068
H   -2.34920016   1.43991138   3.18766612
O    0.27448074   1.76003885  -0.38572415
H    1.01647884   1.63271261  -0.97687446
H   -0.49313930   1.53858589  -0.91293369
O   -1.78063486   0.76438235  -1.92071363
H   -2.48948877   1.13586293  -2.44584234
H   -1.21661741   0.32377225  -2.55630697
O    0.12279398  -0.49234781  -3.45438120
H    0.20107645  -1.24692114  -2.87066655
H    0.07554053  -0.87167226  -4.33194141
O   -1.33883267  -3.33006044   0.34451726
H   -2.06910395  -3.93177791   0.20004651
H   -1.74325216  -2.46277186   0.36659096
O    0.44073228  -2.36210200  -1.54954031
H    1.17822692  -2.10432310  -0.99647292
H   -0.13614309  -2.85491955  -0.96595012
K    0.52995122  -0.11880857   1.68218361
