37
Energy:   -675.21745728
O    0.74274484   0.38688219  -3.20972605
H    0.18492911  -0.38322762  -3.10016180
H    0.64630947   0.62379368  -4.13211697
O   -0.22454186  -2.75273166   1.96214783
H   -0.23443538  -3.70980317   1.97431684
H    0.24744697  -2.52778586   1.16036371
O   -0.77558424   1.40417453  -1.08443733
H   -0.67205799   2.30982261  -0.79234876
H   -0.19312289   1.32767973  -1.84016160
O   -1.86918915  -0.51843858   1.58816942
H   -1.54127391  -1.39023238   1.80880263
H   -2.31355095  -0.63462043   0.74836217
O    2.94835764   1.36236441   0.22742193
H    3.77264902   1.83773305   0.33134608
H    3.10684054   0.76392035  -0.50263267
O    2.94872371  -0.48475863  -1.80245364
H    3.63006327  -0.84202422  -2.37198816
H    2.28948999  -0.13938134  -2.40441483
O   -0.36686220   3.45622717   0.73591109
H   -0.97775029   3.22996280   1.43723271
H   -0.24616463   4.40217249   0.81868435
O   -1.64922279   1.99170956   2.70215639
H   -2.02132946   2.16523270   3.56682870
H   -1.98935387   1.12949363   2.46314516
O   -2.76655505  -0.44896623  -1.02825495
H   -2.20149641   0.32144264  -1.08665661
H   -3.63684950  -0.12657977  -1.26253339
O   -0.81862009  -1.76272347  -2.42513698
H   -1.10993190  -2.56382074  -2.86058209
H   -1.60874711  -1.41210277  -2.01404543
O    1.09179588  -0.77996315   3.37839745
H    1.48125387  -0.99114613   4.22689970
H    0.67165858  -1.59308477   3.09813022
O    0.88066286  -1.52777721  -0.25118506
H    1.72160268  -1.35514803  -0.67456579
H    0.27456139  -1.68272933  -0.97565914
K    0.56419522   0.83068902   1.30591389
