37
Energy:   -675.25593228
O    1.12352836   1.74321225  -3.39554868
H    0.95292444   2.46946729  -3.99528176
H    0.67518775   1.98965734  -2.58654475
O   -2.00390977   1.19400087   1.92576364
H   -1.69627507   0.43318022   2.41845491
H   -1.28869064   1.82688043   1.99023782
O   -2.63875827   1.02071905  -0.67693259
H   -3.50828163   1.35977805  -0.88953545
H   -2.57377515   1.10626831   0.27421953
O    1.51399090   0.15004030   2.17211246
H    0.76240056  -0.29340307   2.56543392
H    2.24530304  -0.05459161   2.75481323
O    0.37249263   2.62990978   1.72226865
H    0.90251783   1.88634070   2.00934033
H    0.69979082   3.36969676   2.23395504
O    3.25058477   0.76181699  -1.90720253
H    4.14940704   0.98325047  -2.15075458
H    2.70873033   1.20819256  -2.55787484
O   -0.79509949  -1.02971029   3.07747404
H   -1.02077040  -1.77312923   2.51833831
H   -1.09472571  -1.28580972   3.94975213
O   -0.00509260   1.80435573  -0.89307902
H   -0.94844981   1.64346636  -0.91366142
H    0.13775443   2.29070044  -0.08110894
O   -1.25234399  -1.32619572  -0.92172627
H   -1.85746562  -0.58584889  -0.87761022
H   -0.95861438  -1.34211963  -1.83260562
O   -1.26742658  -3.01437204   1.22880631
H   -1.93417023  -3.70061303   1.20127336
H   -1.41550819  -2.50381553   0.43279392
O    0.43223564  -0.92735239  -3.11474822
H    0.56609636  -1.46689776  -3.89398115
H    0.60564254  -0.03324310  -3.40924861
O    1.42111124  -3.00755959   0.58925324
H    1.89021894  -3.83314879   0.70996903
H    0.52705091  -3.19557644   0.87480121
K    1.39846751  -0.56053993  -0.50300465
