37
Energy:   -676.02758483
O    1.81312924   1.76626164  -2.28311360
H    2.26656730   2.34240524  -2.89848692
H    1.40276800   1.10073182  -2.83529614
O   -1.08622577  -0.96739182   3.54109019
H   -1.19355843  -1.30577788   4.43002575
H   -1.95444220  -0.64361083   3.30109444
O   -1.29742687   2.26949688   2.03735694
H   -1.05104164   2.40351094   1.12217040
H   -1.20138896   3.13230370   2.44056033
O   -1.82832670  -0.92686871   0.29859343
H   -2.51899540  -0.59896855   0.87451884
H   -2.02973034  -0.54845108  -0.55725031
O    2.98900190   0.57165191   2.39262730
H    3.80488370   0.72730587   2.86837996
H    3.26430317   0.41208014   1.48986603
O    2.52911047  -0.00857465  -0.30104795
H    2.44092808  -0.82494957  -0.79297040
H    2.45273501   0.67942177  -0.96215275
O   -3.23276913   0.32744211   2.34324523
H   -2.71423851   1.13075662   2.29803852
H   -4.11097159   0.62193601   2.58462798
O   -0.27562305   1.87325596  -0.46472543
H    0.46960142   2.06407762  -1.03433883
H   -0.92030812   1.46408705  -1.04195486
O   -1.85689088   0.36335856  -2.14527859
H   -2.54363670   0.56578635  -2.78060135
H   -1.12425747   0.04982177  -2.67553778
O    0.48643958  -0.40449674  -3.41405774
H    0.89078750  -1.09732009  -2.89182177
H    0.54078608  -0.72093217  -4.31580434
O    0.29512717  -2.59063869   0.57320091
H    0.16602482  -3.34891535   1.14292096
H   -0.58480488  -2.23845840   0.43933349
O    1.71364929  -2.22940988  -1.73936294
H    2.23918148  -3.00011485  -1.95398264
H    1.20271243  -2.49287907  -0.97401377
K    0.47469464   0.06541614   1.60883823
