37
Energy:   -674.06853725
O    0.86275881   0.30421921  -3.09932365
H    1.52760689   0.54801493  -2.45529528
H    1.20734088   0.62445651  -3.93295613
O   -1.21441104  -2.60796886   2.22750493
H   -1.83043544  -3.28522050   2.50692577
H   -1.76915468  -1.88330179   1.93880271
O   -0.73135502   3.35106259   0.59500781
H   -0.95055488   2.88351294  -0.21095782
H   -1.36078566   4.07118056   0.63346599
O   -2.28909753  -0.29039489   1.22411306
H   -2.55671899  -0.45834121   0.32056194
H   -3.03252400   0.17048500   1.61287862
O    1.98355647   3.07534456   0.91712842
H    1.12710193   3.48841434   0.80717006
H    2.52728838   3.75336450   1.31822244
O    2.36080596   1.07197531  -0.96678972
H    2.83096928   0.43399771  -0.42998168
H    2.48393759   1.90529133  -0.51219664
O    0.29210184  -0.61279794   3.43563576
H   -0.17115653  -1.42359262   3.22531333
H    0.58690135  -0.73210877   4.33845912
O   -0.94513955   1.38943079  -1.30355716
H   -1.69344125   0.80600959  -1.42963695
H   -0.35300491   1.17977472  -2.02581249
O   -2.75851426  -0.68759432  -1.45332523
H   -3.52204933  -0.84104184  -2.00983212
H   -2.07472073  -1.24477828  -1.82508360
O   -0.49719735  -1.97966280  -2.35358015
H    0.01550275  -1.25412042  -2.70989282
H   -0.35283639  -2.69976239  -2.96745990
O    0.55226876  -1.90855178   0.20921842
H   -0.01847796  -2.38751330   0.81011433
H    0.19335804  -2.09078944  -0.65923099
O    2.94333181  -0.77821391   0.95003735
H    2.29622504  -1.44308804   0.71460782
H    3.65046491  -1.26915107   1.36857687
K    0.42271915   0.72528982   1.10831018
