37
Energy:   -673.82363851
O    2.22204333   1.41853261  -1.79409597
H    2.77053809   1.97537432  -2.34664701
H    1.73887314   0.86931753  -2.41146233
O    0.41801768  -2.79930184   2.15060664
H    0.00805088  -3.19700667   1.38249861
H    0.67700569  -3.54205495   2.69601921
O   -1.05510025   3.28294021   1.97495132
H   -0.65126727   3.00593509   1.15250440
H   -1.31525971   4.19109154   1.82064618
O   -1.74692061  -0.90175440   0.19043135
H   -2.19186610  -0.38034321   0.85855239
H   -1.82194304  -0.38138685  -0.60945682
O    0.83718702   1.90141842   3.46048878
H    0.23403937   2.56435855   3.12440077
H    1.29541045   2.33635722   4.17957944
O    2.77260204  -0.13057462   0.41530717
H    2.72401372   0.38793071  -0.38782623
H    3.67274197  -0.45538488   0.43717604
O   -2.16777315   0.77307759   2.34718957
H   -1.96305532   1.70566399   2.27932898
H   -2.78627711   0.71552111   3.07545597
O    0.04688229   1.89989641  -0.12864430
H    0.86257472   1.93374114  -0.62837647
H   -0.61265763   1.62212538  -0.76431890
O   -1.61441320   0.74775119  -2.00117610
H   -2.29275991   1.04704627  -2.60656857
H   -0.91680585   0.41690566  -2.56696500
O    0.59389220  -0.19136919  -3.33869787
H    0.67269887  -1.06836557  -2.96333311
H    0.65785401  -0.32824429  -4.28389940
O   -0.90431473  -3.46202223  -0.17835807
H   -1.61608290  -4.09166444  -0.29311261
H   -1.34453412  -2.61832555  -0.07533063
O    0.76373075  -2.65838454  -2.22747740
H    1.33061874  -3.39604435  -2.45270585
H    0.19632767  -2.99480151  -1.53385703
K    0.46854583  -0.14951006   1.77302370
