37
Energy:   -675.06793962
O    1.96799486  -1.02016537  -0.50570773
H    1.65972717  -1.57946420   0.20730538
H    1.69261174  -1.47346779  -1.30252195
O   -2.97301326   1.02715095   1.18129823
H   -2.50576257   1.34832513   1.95250234
H   -3.88980825   1.24639239   1.34758708
O   -0.92308632  -0.21378525  -3.43018806
H   -1.28108121  -0.11155003  -2.54836072
H   -1.68422029  -0.14986896  -4.00709502
O   -1.03565320  -2.80108903  -0.45416684
H   -0.47799054  -2.81935116  -1.23192690
H   -1.68597753  -3.48616720  -0.60901519
O    3.20318861   0.90735887   1.09345048
H    4.12949966   1.09357874   1.24675360
H    3.20403027   0.13444900   0.52878998
O    0.64177189  -2.32792696  -2.59670252
H    0.14805830  -1.64034296  -3.04358840
H    1.03739758  -2.83752649  -3.30382379
O   -1.30797768   1.92843007   3.19797589
H   -0.58613293   1.31218191   3.07383802
H   -1.40378398   1.99762764   4.14785204
O   -0.18801796   3.52674567   1.24353959
H   -0.63739767   3.14473974   1.99743693
H   -0.32712659   4.46949034   1.33361247
O   -1.41038879  -0.07323744  -0.73766742
H   -1.38919408  -1.00891558  -0.53694609
H   -2.05221801   0.28878610  -0.12674512
O    0.86726123   1.79755491  -2.83364534
H    1.20140430   2.30066397  -3.57624991
H    0.28019411   1.15143000  -3.22620952
O    0.75140395   0.32466281   2.35497268
H    1.69125217   0.50303847   2.32181712
H    0.68298201  -0.62348438   2.24286918
O    0.74591172  -2.33700991   1.58622582
H    0.03481864  -2.61106347   1.00702540
H    0.94007612  -3.11316119   2.11169820
K    0.78274561   1.49078182  -0.18077531
